REMARK VINA RESULT:      -6.0      1.267      2.073
REMARK  7 active torsions:
REMARK  status: ('A' for Active; 'I' for Inactive)
REMARK    1  A    between atoms: S_1  and  C1_4 
REMARK    2  A    between atoms: S_1  and  N_17 
REMARK       I    between atoms: N1_11  and  C7_19 
REMARK    3  A    between atoms: N_17  and  CA_18 
REMARK    4  A    between atoms: CA_18  and  CB_21 
REMARK    5  A    between atoms: CA_18  and  C7_19 
REMARK    6  A    between atoms: CB_21  and  CG_22 
REMARK    7  A    between atoms: CE1_25  and  CF_28 
ROOT
HETATM    1  CA  0ZG E   1      -1.957   7.308  30.882  1.00 14.15     0.198 C 
ENDROOT
BRANCH   1   2
HETATM    2  CB  0ZG E   1      -1.051   7.094  29.656  1.00 12.21     0.061 C 
BRANCH   2   3
HETATM    3  CG  0ZG E   1      -1.284   5.808  28.853  1.00 10.71    -0.020 A 
HETATM    4  CD2 0ZG E   1      -1.985   5.841  27.662  1.00  9.73    -0.004 A 
HETATM    5  CE2 0ZG E   1      -2.143   4.677  26.948  1.00  9.59    -0.000 A 
HETATM    6  CZ  0ZG E   1      -1.618   3.476  27.381  1.00  9.52     0.003 A 
HETATM    7  CE1 0ZG E   1      -0.900   3.410  28.578  1.00  9.60     0.039 A 
HETATM    8  CD1 0ZG E   1      -0.767   4.598  29.271  1.00  9.96    -0.001 A 
BRANCH   7   9
HETATM    9  CF  0ZG E   1      -0.333   2.206  29.029  1.00  9.03     0.205 C 
HETATM   10  NG2 0ZG E   1       0.532   1.531  28.248  1.00  9.25    -0.125 N 
HETATM   11  NG1 0ZG E   1      -0.649   1.753  30.256  1.00  8.04    -0.125 N 
ENDBRANCH   7   9
ENDBRANCH   2   3
ENDBRANCH   1   2
BRANCH   1  12
HETATM   12  C7  0ZG E   1      -1.310   8.291  31.881  1.00 13.65     0.257 C 
HETATM   13  N1  0ZG E   1      -1.269   8.003  33.196  1.00 13.52    -0.319 N 
HETATM   14  C21 0ZG E   1      -1.738   6.740  33.775  1.00 13.23     0.104 C 
HETATM   15  C61 0ZG E   1      -0.526   8.834  34.127  1.00 13.12     0.104 C 
HETATM   16  C31 0ZG E   1      -2.694   7.117  34.885  1.00 12.92     0.024 C 
HETATM   17  C41 0ZG E   1      -2.019   8.081  35.849  1.00 12.86     0.004 C 
HETATM   18  C51 0ZG E   1      -1.530   9.315  35.138  1.00 12.95     0.024 C 
HETATM   19  O   0ZG E   1      -0.785   9.326  31.438  1.00 12.79    -0.270 OA
ENDBRANCH   1  12
BRANCH   1  20
HETATM   20  N   0ZG E   1      -3.275   7.755  30.432  1.00 16.26    -0.177 NA
BRANCH  20  21
HETATM   21  S   0ZG E   1      -4.643   6.842  30.813  1.00 18.07     0.282 S 
HETATM   22  O2S 0ZG E   1      -5.797   7.333  29.949  1.00 18.65    -0.199 OA
HETATM   23  O1S 0ZG E   1      -4.895   7.016  32.303  1.00 18.26    -0.199 OA
BRANCH  21  24
HETATM   24  C1  0ZG E   1      -4.336   5.084  30.554  1.00 19.32     0.105 A 
HETATM   25  C6  0ZG E   1      -3.710   4.300  31.510  1.00 19.98     0.013 A 
HETATM   26  C5  0ZG E   1      -3.660   2.931  31.313  1.00 20.90    -0.004 A 
HETATM   27  C4  0ZG E   1      -4.226   2.380  30.162  1.00 21.71    -0.022 A 
HETATM   28  C   0ZG E   1      -4.223   0.866  29.938  1.00 22.51     0.031 C 
HETATM   29  C3  0ZG E   1      -4.811   3.176  29.195  1.00 21.05    -0.004 A 
HETATM   30  C2  0ZG E   1      -4.862   4.533  29.396  1.00 20.33     0.013 A 
ENDBRANCH  21  24
ENDBRANCH  20  21
ENDBRANCH   1  20
TORSDOF 7
