REMARK VINA RESULT:      -6.0     28.210     30.294
REMARK  7 active torsions:
REMARK  status: ('A' for Active; 'I' for Inactive)
REMARK    1  A    between atoms: S_1  and  C1_4 
REMARK    2  A    between atoms: S_1  and  N_17 
REMARK       I    between atoms: N1_11  and  C7_19 
REMARK    3  A    between atoms: N_17  and  CA_18 
REMARK    4  A    between atoms: CA_18  and  CB_21 
REMARK    5  A    between atoms: CA_18  and  C7_19 
REMARK    6  A    between atoms: CB_21  and  CG_22 
REMARK    7  A    between atoms: CE1_25  and  CF_28 
ROOT
HETATM    1  CA  0ZG E   1       7.463  21.033   7.870  1.00 14.15     0.198 C 
ENDROOT
BRANCH   1   2
HETATM    2  CB  0ZG E   1       7.500  19.496   7.950  1.00 12.21     0.061 C 
BRANCH   2   3
HETATM    3  CG  0ZG E   1       7.676  18.749   6.622  1.00 10.71    -0.020 A 
HETATM    4  CD2 0ZG E   1       8.297  17.515   6.588  1.00  9.73    -0.004 A 
HETATM    5  CE2 0ZG E   1       8.405  16.854   5.387  1.00  9.59    -0.000 A 
HETATM    6  CZ  0ZG E   1       7.906  17.384   4.214  1.00  9.52     0.003 A 
HETATM    7  CE1 0ZG E   1       7.269  18.627   4.216  1.00  9.60     0.039 A 
HETATM    8  CD1 0ZG E   1       7.185  19.264   5.439  1.00  9.96    -0.001 A 
BRANCH   7   9
HETATM    9  CF  0ZG E   1       6.730  19.179   3.041  1.00  9.03     0.205 C 
HETATM   10  NG2 0ZG E   1       6.909  18.558   1.858  1.00  9.25    -0.125 N 
HETATM   11  NG1 0ZG E   1       6.019  20.318   3.117  1.00  8.04    -0.125 N 
ENDBRANCH   7   9
ENDBRANCH   2   3
ENDBRANCH   1   2
BRANCH   1  12
HETATM   12  C7  0ZG E   1       6.371  21.608   8.797  1.00 13.65     0.257 C 
HETATM   13  N1  0ZG E   1       5.111  21.774   8.350  1.00 13.52    -0.319 N 
HETATM   14  C21 0ZG E   1       4.651  21.364   7.020  1.00 13.23     0.104 C 
HETATM   15  C61 0ZG E   1       4.037  22.160   9.248  1.00 13.12     0.104 C 
HETATM   16  C31 0ZG E   1       3.987  22.579   6.413  1.00 12.92     0.024 C 
HETATM   17  C41 0ZG E   1       2.916  23.113   7.352  1.00 12.86     0.004 C 
HETATM   18  C51 0ZG E   1       3.490  23.450   8.703  1.00 12.95     0.024 C 
HETATM   19  O   0ZG E   1       6.669  21.864   9.976  1.00 12.79    -0.270 OA
ENDBRANCH   1  12
BRANCH   1  20
HETATM   20  N   0ZG E   1       8.792  21.562   8.177  1.00 16.26    -0.177 NA
BRANCH  20  21
HETATM   21  S   0ZG E   1       9.857  21.930   6.921  1.00 18.07     0.282 S 
HETATM   22  O2S 0ZG E   1      10.818  23.005   7.413  1.00 18.65    -0.199 OA
HETATM   23  O1S 0ZG E   1       9.013  22.378   5.737  1.00 18.26    -0.199 OA
BRANCH  21  24
HETATM   24  C1  0ZG E   1      10.747  20.458   6.380  1.00 19.32     0.105 A 
HETATM   25  C6  0ZG E   1      11.287  19.555   7.283  1.00 19.98     0.013 A 
HETATM   26  C5  0ZG E   1      11.808  18.367   6.798  1.00 20.90    -0.004 A 
HETATM   27  C4  0ZG E   1      11.786  18.116   5.425  1.00 21.71    -0.022 A 
HETATM   28  C   0ZG E   1      12.315  16.793   4.865  1.00 22.51     0.031 C 
HETATM   29  C3  0ZG E   1      11.283  19.041   4.531  1.00 21.05    -0.004 A 
HETATM   30  C2  0ZG E   1      10.764  20.217   5.015  1.00 20.33     0.013 A 
ENDBRANCH  21  24
ENDBRANCH  20  21
ENDBRANCH   1  20
TORSDOF 7
