REMARK VINA RESULT:      -6.2      8.674     11.013
REMARK  7 active torsions:
REMARK  status: ('A' for Active; 'I' for Inactive)
REMARK    1  A    between atoms: S_1  and  C1_4 
REMARK    2  A    between atoms: S_1  and  N_17 
REMARK       I    between atoms: N1_11  and  C7_19 
REMARK    3  A    between atoms: N_17  and  CA_18 
REMARK    4  A    between atoms: CA_18  and  CB_21 
REMARK    5  A    between atoms: CA_18  and  C7_19 
REMARK    6  A    between atoms: CB_21  and  CG_22 
REMARK    7  A    between atoms: CE1_25  and  CF_28 
ROOT
HETATM    1  CA  0ZG E   1      -2.664   3.709  21.298  1.00 14.15     0.198 C 
ENDROOT
BRANCH   1   2
HETATM    2  CB  0ZG E   1      -3.454   2.415  21.028  1.00 12.21     0.061 C 
BRANCH   2   3
HETATM    3  CG  0ZG E   1      -2.629   1.132  20.875  1.00 10.71    -0.020 A 
HETATM    4  CD2 0ZG E   1      -3.070  -0.057  21.424  1.00  9.73    -0.004 A 
HETATM    5  CE2 0ZG E   1      -2.325  -1.197  21.235  1.00  9.59    -0.000 A 
HETATM    6  CZ  0ZG E   1      -1.151  -1.192  20.509  1.00  9.52     0.003 A 
HETATM    7  CE1 0ZG E   1      -0.680  -0.008  19.937  1.00  9.60     0.039 A 
HETATM    8  CD1 0ZG E   1      -1.451   1.119  20.153  1.00  9.96    -0.001 A 
BRANCH   7   9
HETATM    9  CF  0ZG E   1       0.498   0.021  19.172  1.00  9.03     0.205 C 
HETATM   10  NG2 0ZG E   1       0.481  -0.389  17.889  1.00  9.25    -0.125 N 
HETATM   11  NG1 0ZG E   1       1.631   0.483  19.731  1.00  8.04    -0.125 N 
ENDBRANCH   7   9
ENDBRANCH   2   3
ENDBRANCH   1   2
BRANCH   1  12
HETATM   12  C7  0ZG E   1      -3.477   4.951  20.875  1.00 13.65     0.257 C 
HETATM   13  N1  0ZG E   1      -2.932   5.887  20.075  1.00 13.52    -0.319 N 
HETATM   14  C21 0ZG E   1      -1.595   5.781  19.481  1.00 13.23     0.104 C 
HETATM   15  C61 0ZG E   1      -3.728   6.976  19.537  1.00 13.12     0.104 C 
HETATM   16  C31 0ZG E   1      -0.878   7.065  19.833  1.00 12.92     0.024 C 
HETATM   17  C41 0ZG E   1      -1.707   8.264  19.398  1.00 12.86     0.004 C 
HETATM   18  C51 0ZG E   1      -3.076   8.240  20.025  1.00 12.95     0.024 C 
HETATM   19  O   0ZG E   1      -4.659   5.040  21.248  1.00 12.79    -0.270 OA
ENDBRANCH   1  12
BRANCH   1  20
HETATM   20  N   0ZG E   1      -2.275   3.749  22.707  1.00 16.26    -0.177 NA
BRANCH  20  21
HETATM   21  S   0ZG E   1      -0.678   3.417  23.145  1.00 18.07     0.282 S 
HETATM   22  O2S 0ZG E   1      -0.266   4.411  24.223  1.00 18.65    -0.199 OA
HETATM   23  O1S 0ZG E   1       0.161   3.523  21.881  1.00 18.26    -0.199 OA
BRANCH  21  24
HETATM   24  C1  0ZG E   1      -0.509   1.718  23.724  1.00 19.32     0.105 A 
HETATM   25  C6  0ZG E   1      -1.474   1.115  24.516  1.00 19.98     0.013 A 
HETATM   26  C5  0ZG E   1      -1.359  -0.239  24.783  1.00 20.90    -0.004 A 
HETATM   27  C4  0ZG E   1      -0.279  -0.953  24.261  1.00 21.71    -0.022 A 
HETATM   28  C   0ZG E   1      -0.149  -2.460  24.502  1.00 22.51     0.031 C 
HETATM   29  C3  0ZG E   1       0.698  -0.333  23.506  1.00 21.05    -0.004 A 
HETATM   30  C2  0ZG E   1       0.579   1.009  23.242  1.00 20.33     0.013 A 
ENDBRANCH  21  24
ENDBRANCH  20  21
ENDBRANCH   1  20
TORSDOF 7
