REMARK VINA RESULT:      -6.0      1.458      2.145
REMARK  7 active torsions:
REMARK  status: ('A' for Active; 'I' for Inactive)
REMARK    1  A    between atoms: S_1  and  C1_4 
REMARK    2  A    between atoms: S_1  and  N_17 
REMARK       I    between atoms: N1_11  and  C7_19 
REMARK    3  A    between atoms: N_17  and  CA_18 
REMARK    4  A    between atoms: CA_18  and  CB_21 
REMARK    5  A    between atoms: CA_18  and  C7_19 
REMARK    6  A    between atoms: CB_21  and  CG_22 
REMARK    7  A    between atoms: CE1_25  and  CF_28 
ROOT
HETATM    1  CA  0ZG E   1      -1.957   7.298  31.051  1.00 14.15     0.198 C 
ENDROOT
BRANCH   1   2
HETATM    2  CB  0ZG E   1      -1.344   7.256  29.640  1.00 12.21     0.061 C 
BRANCH   2   3
HETATM    3  CG  0ZG E   1      -1.323   5.888  28.946  1.00 10.71    -0.020 A 
HETATM    4  CD2 0ZG E   1      -0.759   4.792  29.570  1.00  9.73    -0.004 A 
HETATM    5  CE2 0ZG E   1      -0.791   3.573  28.936  1.00  9.59    -0.000 A 
HETATM    6  CZ  0ZG E   1      -1.374   3.408  27.696  1.00  9.52     0.003 A 
HETATM    7  CE1 0ZG E   1      -1.956   4.495  27.040  1.00  9.60     0.039 A 
HETATM    8  CD1 0ZG E   1      -1.900   5.705  27.704  1.00  9.96    -0.001 A 
BRANCH   7   9
HETATM    9  CF  0ZG E   1      -2.578   4.351  25.789  1.00  9.03     0.205 C 
HETATM   10  NG2 0ZG E   1      -2.881   3.124  25.321  1.00  9.25    -0.125 N 
HETATM   11  NG1 0ZG E   1      -2.885   5.452  25.078  1.00  8.04    -0.125 N 
ENDBRANCH   7   9
ENDBRANCH   2   3
ENDBRANCH   1   2
BRANCH   1  12
HETATM   12  C7  0ZG E   1      -1.222   8.321  31.942  1.00 13.65     0.257 C 
HETATM   13  N1  0ZG E   1      -1.118   8.123  33.270  1.00 13.52    -0.319 N 
HETATM   14  C21 0ZG E   1      -1.599   6.923  33.962  1.00 13.23     0.104 C 
HETATM   15  C61 0ZG E   1      -0.296   8.987  34.099  1.00 13.12     0.104 C 
HETATM   16  C31 0ZG E   1      -2.478   7.414  35.091  1.00 12.92     0.024 C 
HETATM   17  C41 0ZG E   1      -1.718   8.415  35.947  1.00 12.86     0.004 C 
HETATM   18  C51 0ZG E   1      -1.224   9.576  35.125  1.00 12.95     0.024 C 
HETATM   19  O   0ZG E   1      -0.686   9.302  31.399  1.00 12.79    -0.270 OA
ENDBRANCH   1  12
BRANCH   1  20
HETATM   20  N   0ZG E   1      -3.389   7.576  30.945  1.00 16.26    -0.177 NA
BRANCH  20  21
HETATM   21  S   0ZG E   1      -4.499   6.308  31.051  1.00 18.07     0.282 S 
HETATM   22  O2S 0ZG E   1      -5.715   6.805  31.821  1.00 18.65    -0.199 OA
HETATM   23  O1S 0ZG E   1      -3.788   5.150  31.735  1.00 18.26    -0.199 OA
BRANCH  21  24
HETATM   24  C1  0ZG E   1      -4.962   5.720  29.410  1.00 19.32     0.105 A 
HETATM   25  C6  0ZG E   1      -5.075   4.369  29.121  1.00 19.98     0.013 A 
HETATM   26  C5  0ZG E   1      -5.596   3.997  27.893  1.00 20.90    -0.004 A 
HETATM   27  C4  0ZG E   1      -5.979   4.982  26.982  1.00 21.71    -0.022 A 
HETATM   28  C   0ZG E   1      -6.598   4.602  25.634  1.00 22.51     0.031 C 
HETATM   29  C3  0ZG E   1      -5.823   6.326  27.265  1.00 21.05    -0.004 A 
HETATM   30  C2  0ZG E   1      -5.309   6.691  28.485  1.00 20.33     0.013 A 
ENDBRANCH  21  24
ENDBRANCH  20  21
ENDBRANCH   1  20
TORSDOF 7
