REMARK VINA RESULT:      -6.2      0.000      0.000
REMARK  7 active torsions:
REMARK  status: ('A' for Active; 'I' for Inactive)
REMARK    1  A    between atoms: S_1  and  C1_4 
REMARK    2  A    between atoms: S_1  and  N_17 
REMARK       I    between atoms: N1_11  and  C7_19 
REMARK    3  A    between atoms: N_17  and  CA_18 
REMARK    4  A    between atoms: CA_18  and  CB_21 
REMARK    5  A    between atoms: CA_18  and  C7_19 
REMARK    6  A    between atoms: CB_21  and  CG_22 
REMARK    7  A    between atoms: CE1_25  and  CF_28 
ROOT
HETATM    1  CA  0ZG E   1      -1.795   7.359  31.137  1.00 14.15     0.198 C 
ENDROOT
BRANCH   1   2
HETATM    2  CB  0ZG E   1      -1.089   7.275  29.771  1.00 12.21     0.061 C 
BRANCH   2   3
HETATM    3  CG  0ZG E   1      -1.298   5.982  28.974  1.00 10.71    -0.020 A 
HETATM    4  CD2 0ZG E   1      -1.878   6.016  27.720  1.00  9.73    -0.004 A 
HETATM    5  CE2 0ZG E   1      -2.016   4.843  27.016  1.00  9.59    -0.000 A 
HETATM    6  CZ  0ZG E   1      -1.588   3.632  27.522  1.00  9.52     0.003 A 
HETATM    7  CE1 0ZG E   1      -0.995   3.564  28.785  1.00  9.60     0.039 A 
HETATM    8  CD1 0ZG E   1      -0.878   4.761  29.465  1.00  9.96    -0.001 A 
BRANCH   7   9
HETATM    9  CF  0ZG E   1      -0.528   2.349  29.313  1.00  9.03     0.205 C 
HETATM   10  NG2 0ZG E   1      -0.895   1.965  30.552  1.00  9.25    -0.125 N 
HETATM   11  NG1 0ZG E   1       0.268   1.569  28.560  1.00  8.04    -0.125 N 
ENDBRANCH   7   9
ENDBRANCH   2   3
ENDBRANCH   1   2
BRANCH   1  12
HETATM   12  C7  0ZG E   1      -1.111   8.399  32.049  1.00 13.65     0.257 C 
HETATM   13  N1  0ZG E   1      -1.027   8.196  33.377  1.00 13.52    -0.319 N 
HETATM   14  C21 0ZG E   1      -1.484   6.976  34.051  1.00 13.23     0.104 C 
HETATM   15  C61 0ZG E   1      -0.250   9.080  34.228  1.00 13.12     0.104 C 
HETATM   16  C31 0ZG E   1      -2.400   7.431  35.165  1.00 12.92     0.024 C 
HETATM   17  C41 0ZG E   1      -1.690   8.450  36.043  1.00 12.86     0.004 C 
HETATM   18  C51 0ZG E   1      -1.218   9.631  35.238  1.00 12.95     0.024 C 
HETATM   19  O   0ZG E   1      -0.596   9.401  31.523  1.00 12.79    -0.270 OA
ENDBRANCH   1  12
BRANCH   1  20
HETATM   20  N   0ZG E   1      -3.214   7.647  30.927  1.00 16.26    -0.177 NA
BRANCH  20  21
HETATM   21  S   0ZG E   1      -4.357   6.422  31.136  1.00 18.07     0.282 S 
HETATM   22  O2S 0ZG E   1      -5.461   6.953  32.042  1.00 18.65    -0.199 OA
HETATM   23  O1S 0ZG E   1      -3.624   5.225  31.723  1.00 18.26    -0.199 OA
BRANCH  21  24
HETATM   24  C1  0ZG E   1      -5.019   5.882  29.548  1.00 19.32     0.105 A 
HETATM   25  C6  0ZG E   1      -5.388   6.785  28.563  1.00 19.98     0.013 A 
HETATM   26  C5  0ZG E   1      -5.729   6.296  27.313  1.00 20.90    -0.004 A 
HETATM   27  C4  0ZG E   1      -5.703   4.920  27.082  1.00 21.71    -0.022 A 
HETATM   28  C   0ZG E   1      -6.032   4.354  25.698  1.00 22.51     0.031 C 
HETATM   29  C3  0ZG E   1      -5.373   4.027  28.084  1.00 21.05    -0.004 A 
HETATM   30  C2  0ZG E   1      -5.033   4.515  29.321  1.00 20.33     0.013 A 
ENDBRANCH  21  24
ENDBRANCH  20  21
ENDBRANCH   1  20
TORSDOF 7
