REMARK VINA RESULT:      -6.0      7.346     10.996
REMARK  7 active torsions:
REMARK  status: ('A' for Active; 'I' for Inactive)
REMARK    1  A    between atoms: S_1  and  C1_4 
REMARK    2  A    between atoms: S_1  and  N_17 
REMARK       I    between atoms: N1_11  and  C7_19 
REMARK    3  A    between atoms: N_17  and  CA_18 
REMARK    4  A    between atoms: CA_18  and  CB_21 
REMARK    5  A    between atoms: CA_18  and  C7_19 
REMARK    6  A    between atoms: CB_21  and  CG_22 
REMARK    7  A    between atoms: CE1_25  and  CF_28 
ROOT
HETATM    1  CA  0ZG E   1      -0.971   2.173  21.382  1.00 14.15     0.198 C 
ENDROOT
BRANCH   1   2
HETATM    2  CB  0ZG E   1      -1.363   2.923  20.096  1.00 12.21     0.061 C 
BRANCH   2   3
HETATM    3  CG  0ZG E   1      -2.392   4.049  20.250  1.00 10.71    -0.020 A 
HETATM    4  CD2 0ZG E   1      -3.668   3.778  20.707  1.00  9.73    -0.004 A 
HETATM    5  CE2 0ZG E   1      -4.554   4.816  20.870  1.00  9.59    -0.000 A 
HETATM    6  CZ  0ZG E   1      -4.207   6.124  20.595  1.00  9.52     0.003 A 
HETATM    7  CE1 0ZG E   1      -2.924   6.432  20.137  1.00  9.60     0.039 A 
HETATM    8  CD1 0ZG E   1      -2.063   5.363  19.979  1.00  9.96    -0.001 A 
BRANCH   7   9
HETATM    9  CF  0ZG E   1      -2.537   7.756  19.873  1.00  9.03     0.205 C 
HETATM   10  NG2 0ZG E   1      -1.233   8.062  19.723  1.00  9.25    -0.125 N 
HETATM   11  NG1 0ZG E   1      -3.483   8.705  19.753  1.00  8.04    -0.125 N 
ENDBRANCH   7   9
ENDBRANCH   2   3
ENDBRANCH   1   2
BRANCH   1  12
HETATM   12  C7  0ZG E   1       0.164   1.164  21.109  1.00 13.65     0.257 C 
HETATM   13  N1  0ZG E   1       0.163  -0.046  21.700  1.00 13.52    -0.319 N 
HETATM   14  C21 0ZG E   1      -0.918  -0.536  22.563  1.00 13.23     0.104 C 
HETATM   15  C61 0ZG E   1       1.130  -1.066  21.335  1.00 13.12     0.104 C 
HETATM   16  C31 0ZG E   1      -0.256  -0.994  23.843  1.00 12.92     0.024 C 
HETATM   17  C41 0ZG E   1       0.852  -1.989  23.533  1.00 12.86     0.004 C 
HETATM   18  C51 0ZG E   1       1.873  -1.397  22.598  1.00 12.95     0.024 C 
HETATM   19  O   0ZG E   1       1.048   1.474  20.292  1.00 12.79    -0.270 OA
ENDBRANCH   1  12
BRANCH   1  20
HETATM   20  N   0ZG E   1      -0.617   3.146  22.416  1.00 16.26    -0.177 NA
BRANCH  20  21
HETATM   21  S   0ZG E   1      -1.430   3.129  23.895  1.00 18.07     0.282 S 
HETATM   22  O2S 0ZG E   1      -2.665   2.249  23.747  1.00 18.65    -0.199 OA
HETATM   23  O1S 0ZG E   1      -1.762   4.573  24.238  1.00 18.26    -0.199 OA
BRANCH  21  24
HETATM   24  C1  0ZG E   1      -0.356   2.530  25.213  1.00 19.32     0.105 A 
HETATM   25  C6  0ZG E   1      -0.811   2.366  26.512  1.00 19.98     0.013 A 
HETATM   26  C5  0ZG E   1       0.019   1.746  27.430  1.00 20.90    -0.004 A 
HETATM   27  C4  0ZG E   1       1.285   1.314  27.032  1.00 21.71    -0.022 A 
HETATM   28  C   0ZG E   1       2.208   0.587  28.013  1.00 22.51     0.031 C 
HETATM   29  C3  0ZG E   1       1.744   1.520  25.744  1.00 21.05    -0.004 A 
HETATM   30  C2  0ZG E   1       0.917   2.133  24.836  1.00 20.33     0.013 A 
ENDBRANCH  21  24
ENDBRANCH  20  21
ENDBRANCH   1  20
TORSDOF 7
