REMARK VINA RESULT:      -6.1      7.591     11.198
REMARK  7 active torsions:
REMARK  status: ('A' for Active; 'I' for Inactive)
REMARK    1  A    between atoms: S_1  and  C1_4 
REMARK    2  A    between atoms: S_1  and  N_17 
REMARK       I    between atoms: N1_11  and  C7_19 
REMARK    3  A    between atoms: N_17  and  CA_18 
REMARK    4  A    between atoms: CA_18  and  CB_21 
REMARK    5  A    between atoms: CA_18  and  C7_19 
REMARK    6  A    between atoms: CB_21  and  CG_22 
REMARK    7  A    between atoms: CE1_25  and  CF_28 
ROOT
HETATM    1  CA  0ZG E   1      -0.696   2.224  20.972  1.00 14.15     0.198 C 
ENDROOT
BRANCH   1   2
HETATM    2  CB  0ZG E   1      -1.215   3.121  19.834  1.00 12.21     0.061 C 
BRANCH   2   3
HETATM    3  CG  0ZG E   1      -2.250   4.185  20.221  1.00 10.71    -0.020 A 
HETATM    4  CD2 0ZG E   1      -3.376   3.839  20.946  1.00  9.73    -0.004 A 
HETATM    5  CE2 0ZG E   1      -4.264   4.823  21.309  1.00  9.59    -0.000 A 
HETATM    6  CZ  0ZG E   1      -4.064   6.148  20.977  1.00  9.52     0.003 A 
HETATM    7  CE1 0ZG E   1      -2.935   6.531  20.250  1.00  9.60     0.039 A 
HETATM    8  CD1 0ZG E   1      -2.068   5.514  19.896  1.00  9.96    -0.001 A 
BRANCH   7   9
HETATM    9  CF  0ZG E   1      -2.694   7.875  19.920  1.00  9.03     0.205 C 
HETATM   10  NG2 0ZG E   1      -3.707   8.764  19.922  1.00  9.25    -0.125 N 
HETATM   11  NG1 0ZG E   1      -1.440   8.263  19.624  1.00  8.04    -0.125 N 
ENDBRANCH   7   9
ENDBRANCH   2   3
ENDBRANCH   1   2
BRANCH   1  12
HETATM   12  C7  0ZG E   1       0.108   1.032  20.413  1.00 13.65     0.257 C 
HETATM   13  N1  0ZG E   1      -0.380  -0.220  20.489  1.00 13.52    -0.319 N 
HETATM   14  C21 0ZG E   1      -1.709  -0.552  21.013  1.00 13.23     0.104 C 
HETATM   15  C61 0ZG E   1       0.284  -1.330  19.828  1.00 13.12     0.104 C 
HETATM   16  C31 0ZG E   1      -1.491  -1.620  22.061  1.00 12.92     0.024 C 
HETATM   17  C41 0ZG E   1      -0.700  -2.778  21.471  1.00 12.86     0.004 C 
HETATM   18  C51 0ZG E   1       0.620  -2.312  20.916  1.00 12.95     0.024 C 
HETATM   19  O   0ZG E   1       1.191   1.262  19.847  1.00 12.79    -0.270 OA
ENDBRANCH   1  12
BRANCH   1  20
HETATM   20  N   0ZG E   1       0.084   3.037  21.906  1.00 16.26    -0.177 NA
BRANCH  20  21
HETATM   21  S   0ZG E   1      -0.032   2.749  23.565  1.00 18.07     0.282 S 
HETATM   22  O2S 0ZG E   1       1.067   3.542  24.262  1.00 18.65    -0.199 OA
HETATM   23  O1S 0ZG E   1       0.093   1.247  23.767  1.00 18.26    -0.199 OA
BRANCH  21  24
HETATM   24  C1  0ZG E   1      -1.661   3.210  24.185  1.00 19.32     0.105 A 
HETATM   25  C6  0ZG E   1      -1.966   4.512  24.547  1.00 19.98     0.013 A 
HETATM   26  C5  0ZG E   1      -3.281   4.823  24.854  1.00 20.90    -0.004 A 
HETATM   27  C4  0ZG E   1      -4.254   3.824  24.801  1.00 21.71    -0.022 A 
HETATM   28  C   0ZG E   1      -5.722   4.147  25.092  1.00 22.51     0.031 C 
HETATM   29  C3  0ZG E   1      -3.931   2.519  24.479  1.00 21.05    -0.004 A 
HETATM   30  C2  0ZG E   1      -2.627   2.216  24.172  1.00 20.33     0.013 A 
ENDBRANCH  21  24
ENDBRANCH  20  21
ENDBRANCH   1  20
TORSDOF 7
