REMARK VINA RESULT:      -6.0      6.422     10.352
REMARK  7 active torsions:
REMARK  status: ('A' for Active; 'I' for Inactive)
REMARK    1  A    between atoms: S_1  and  C1_4 
REMARK    2  A    between atoms: S_1  and  N_17 
REMARK       I    between atoms: N1_11  and  C7_19 
REMARK    3  A    between atoms: N_17  and  CA_18 
REMARK    4  A    between atoms: CA_18  and  CB_21 
REMARK    5  A    between atoms: CA_18  and  C7_19 
REMARK    6  A    between atoms: CB_21  and  CG_22 
REMARK    7  A    between atoms: CE1_25  and  CF_28 
ROOT
HETATM    1  CA  0ZG E   1      -1.426   2.991  23.292  1.00 14.15     0.198 C 
ENDROOT
BRANCH   1   2
HETATM    2  CB  0ZG E   1      -1.898   4.457  23.289  1.00 12.21     0.061 C 
BRANCH   2   3
HETATM    3  CG  0ZG E   1      -2.706   4.910  22.067  1.00 10.71    -0.020 A 
HETATM    4  CD2 0ZG E   1      -3.826   4.207  21.665  1.00  9.73    -0.004 A 
HETATM    5  CE2 0ZG E   1      -4.550   4.663  20.589  1.00  9.59    -0.000 A 
HETATM    6  CZ  0ZG E   1      -4.195   5.805  19.899  1.00  9.52     0.003 A 
HETATM    7  CE1 0ZG E   1      -3.071   6.540  20.283  1.00  9.60     0.039 A 
HETATM    8  CD1 0ZG E   1      -2.365   6.049  21.364  1.00  9.96    -0.001 A 
BRANCH   7   9
HETATM    9  CF  0ZG E   1      -2.701   7.720  19.615  1.00  9.03     0.205 C 
HETATM   10  NG2 0ZG E   1      -3.426   8.845  19.777  1.00  9.25    -0.125 N 
HETATM   11  NG1 0ZG E   1      -1.607   7.715  18.833  1.00  8.04    -0.125 N 
ENDBRANCH   7   9
ENDBRANCH   2   3
ENDBRANCH   1   2
BRANCH   1  12
HETATM   12  C7  0ZG E   1      -0.637   2.662  22.007  1.00 13.65     0.257 C 
HETATM   13  N1  0ZG E   1      -0.974   1.603  21.248  1.00 13.52    -0.319 N 
HETATM   14  C21 0ZG E   1      -2.131   0.741  21.510  1.00 13.23     0.104 C 
HETATM   15  C61 0ZG E   1      -0.349   1.370  19.958  1.00 13.12     0.104 C 
HETATM   16  C31 0ZG E   1      -1.602  -0.676  21.526  1.00 12.92     0.024 C 
HETATM   17  C41 0ZG E   1      -0.835  -0.963  20.245  1.00 12.86     0.004 C 
HETATM   18  C51 0ZG E   1       0.294   0.015  20.052  1.00 12.95     0.024 C 
HETATM   19  O   0ZG E   1       0.282   3.426  21.665  1.00 12.79    -0.270 OA
ENDBRANCH   1  12
BRANCH   1  20
HETATM   20  N   0ZG E   1      -0.650   2.739  24.506  1.00 16.26    -0.177 NA
BRANCH  20  21
HETATM   21  S   0ZG E   1      -1.431   2.207  25.904  1.00 18.07     0.282 S 
HETATM   22  O2S 0ZG E   1      -0.685   0.986  26.429  1.00 18.65    -0.199 OA
HETATM   23  O1S 0ZG E   1      -2.873   1.908  25.523  1.00 18.26    -0.199 OA
BRANCH  21  24
HETATM   24  C1  0ZG E   1      -1.496   3.515  27.143  1.00 19.32     0.105 A 
HETATM   25  C6  0ZG E   1      -0.892   3.379  28.384  1.00 19.98     0.013 A 
HETATM   26  C5  0ZG E   1      -0.838   4.484  29.217  1.00 20.90    -0.004 A 
HETATM   27  C4  0ZG E   1      -1.397   5.691  28.796  1.00 21.71    -0.022 A 
HETATM   28  C   0ZG E   1      -1.315   6.940  29.677  1.00 22.51     0.031 C 
HETATM   29  C3  0ZG E   1      -2.033   5.803  27.574  1.00 21.05    -0.004 A 
HETATM   30  C2  0ZG E   1      -2.082   4.707  26.749  1.00 20.33     0.013 A 
ENDBRANCH  21  24
ENDBRANCH  20  21
ENDBRANCH   1  20
TORSDOF 7
