# created with PyMOL 2.5.0
@<TRIPOS>MOLECULE
1the_A
35 36 1                 
SMALL
USER_CHARGES
@<TRIPOS>ATOM
1	   N	8.706	63.122	46.474	N.pl3	1	0E6901	0.000	
2	  CA	9.532	62.111	45.884	C.3	1	0E6901	0.000	
3	   C	10.264	62.687	44.647	C.2	1	0E6901	0.000	
4	   O	9.672	63.366	43.801	O.2	1	0E6901	0.000	
5	  CB	8.685	60.875	45.544	C.3	1	0E6901	0.000	
6	  CG	7.542	60.595	46.545	C.3	1	0E6901	0.000	
7	  CD	7.834	59.444	47.468	C.3	1	0E6901	0.000	
8	  NE	7.686	59.789	48.869	N.3	1	0E6901	0.000	
9	  CZ	6.952	60.795	49.330	C.3	1	0E6901	0.000	
10	 NH1	5.666	60.610	49.553	N.3	1	0E6901	0.000	
11	 NH2	7.560	61.681	50.101	N.3	1	0E6901	0.000	
12	 C6'	17.690	60.862	44.709	C.2	1	0E6901	0.000	
13	 C5'	18.416	59.672	44.618	C.2	1	0E6901	0.000	
14	 C4'	17.746	58.451	44.601	C.2	1	0E6901	0.000	
15	 C3'	16.374	58.419	44.689	C.2	1	0E6901	0.000	
16	 C2'	15.667	59.599	44.776	C.2	1	0E6901	0.000	
17	 C1'	16.310	60.833	44.777	C.2	1	0E6901	0.000	
18	  C1	9.212	63.884	47.433	C.2	1	0E6901	0.000	
19	  O1	10.416	63.874	47.701	O.co2	1	0E6901	0.000	
20	  C2	8.963	65.785	48.991	C.3	1	0E6901	0.000	
21	  O2	8.276	64.810	48.097	O.3	1	0E6901	0.000	
22	  C3	9.233	67.112	48.330	C.2	1	0E6901	0.000	
23	  N3	11.566	62.480	44.586	N.pl3	1	0E6901	0.000	
24	  C4	8.213	67.798	47.686	C.2	1	0E6901	0.000	
25	  C5	8.401	69.068	47.163	C.2	1	0E6901	0.000	
26	  C6	9.626	69.660	47.249	C.2	1	0E6901	0.000	
27	  C7	10.684	68.971	47.858	C.2	1	0E6901	0.000	
28	  C8	10.474	67.698	48.401	C.2	1	0E6901	0.000	
29	 C11	12.190	60.667	42.624	C.3	1	0E6901	0.000	
30	 C21	12.296	62.107	42.273	C.3	1	0E6901	0.000	
31	 O21	12.873	62.449	41.239	O.3	1	0E6901	0.000	
32	 C31	12.322	63.021	43.468	C.3	1	0E6901	0.000	
33	 C41	13.770	63.235	43.848	C.3	1	0E6901	0.000	
34	  C'	15.516	62.110	44.837	C.3	1	0E6901	0.000	
35	  O'	14.169	61.982	44.394	O.3	1	0E6901	0.000	
@<TRIPOS>BOND
1 1 2 1
2 1 18 1
3 2 3 1
4 2 5 1
5 3 4 2
6 3 23 1
7 5 6 1
8 6 7 1
9 7 8 1
10 8 9 1
11 9 10 1
12 9 11 1
13 12 13 ar
14 12 17 ar
15 13 14 ar
16 14 15 ar
17 15 16 ar
18 16 17 ar
19 17 34 1
20 18 19 2
21 18 21 1
22 20 21 1
23 20 22 1
24 22 24 ar
25 22 28 ar
26 23 32 1
27 24 25 ar
28 25 26 ar
29 26 27 ar
30 27 28 ar
31 29 30 1
32 30 31 1
33 30 32 1
34 32 33 1
35 33 35 1
36 34 35 1
@<TRIPOS>SUBSTRUCTURE
1	0E6901	1	GROUP	1 A	0E6
