REMARK VINA RESULT:      -6.2     28.231     30.349
REMARK  7 active torsions:
REMARK  status: ('A' for Active; 'I' for Inactive)
REMARK    1  A    between atoms: S_1  and  C1_4 
REMARK    2  A    between atoms: S_1  and  N_17 
REMARK       I    between atoms: N1_11  and  C7_19 
REMARK    3  A    between atoms: N_17  and  CA_18 
REMARK    4  A    between atoms: CA_18  and  CB_21 
REMARK    5  A    between atoms: CA_18  and  C7_19 
REMARK    6  A    between atoms: CB_21  and  CG_22 
REMARK    7  A    between atoms: CE1_25  and  CF_28 
ROOT
HETATM    1  CA  0ZG E   1       7.487  21.039   7.866  1.00 14.15     0.198 C 
ENDROOT
BRANCH   1   2
HETATM    2  CB  0ZG E   1       7.544  19.503   7.946  1.00 12.21     0.061 C 
BRANCH   2   3
HETATM    3  CG  0ZG E   1       7.703  18.755   6.617  1.00 10.71    -0.020 A 
HETATM    4  CD2 0ZG E   1       8.295  17.507   6.578  1.00  9.73    -0.004 A 
HETATM    5  CE2 0ZG E   1       8.386  16.848   5.375  1.00  9.59    -0.000 A 
HETATM    6  CZ  0ZG E   1       7.900  17.394   4.204  1.00  9.52     0.003 A 
HETATM    7  CE1 0ZG E   1       7.292  18.651   4.210  1.00  9.60     0.039 A 
HETATM    8  CD1 0ZG E   1       7.224  19.286   5.435  1.00  9.96    -0.001 A 
BRANCH   7   9
HETATM    9  CF  0ZG E   1       6.766  19.218   3.037  1.00  9.03     0.205 C 
HETATM   10  NG2 0ZG E   1       6.863  18.560   1.865  1.00  9.25    -0.125 N 
HETATM   11  NG1 0ZG E   1       6.149  20.412   3.105  1.00  8.04    -0.125 N 
ENDBRANCH   7   9
ENDBRANCH   2   3
ENDBRANCH   1   2
BRANCH   1  12
HETATM   12  C7  0ZG E   1       6.392  21.600   8.797  1.00 13.65     0.257 C 
HETATM   13  N1  0ZG E   1       5.130  21.756   8.354  1.00 13.52    -0.319 N 
HETATM   14  C21 0ZG E   1       4.671  21.345   7.023  1.00 13.23     0.104 C 
HETATM   15  C61 0ZG E   1       4.054  22.129   9.255  1.00 13.12     0.104 C 
HETATM   16  C31 0ZG E   1       3.993  22.555   6.421  1.00 12.92     0.024 C 
HETATM   17  C41 0ZG E   1       2.919  23.076   7.365  1.00 12.86     0.004 C 
HETATM   18  C51 0ZG E   1       3.493  23.414   8.715  1.00 12.95     0.024 C 
HETATM   19  O   0ZG E   1       6.691  21.856   9.976  1.00 12.79    -0.270 OA
ENDBRANCH   1  12
BRANCH   1  20
HETATM   20  N   0ZG E   1       8.811  21.585   8.167  1.00 16.26    -0.177 NA
BRANCH  20  21
HETATM   21  S   0ZG E   1       9.876  21.940   6.906  1.00 18.07     0.282 S 
HETATM   22  O2S 0ZG E   1      10.842  23.014   7.390  1.00 18.65    -0.199 OA
HETATM   23  O1S 0ZG E   1       9.032  22.384   5.721  1.00 18.26    -0.199 OA
BRANCH  21  24
HETATM   24  C1  0ZG E   1      10.758  20.461   6.373  1.00 19.32     0.105 A 
HETATM   25  C6  0ZG E   1      11.287  19.557   7.281  1.00 19.98     0.013 A 
HETATM   26  C5  0ZG E   1      11.802  18.363   6.802  1.00 20.90    -0.004 A 
HETATM   27  C4  0ZG E   1      11.785  18.109   5.430  1.00 21.71    -0.022 A 
HETATM   28  C   0ZG E   1      12.308  16.781   4.875  1.00 22.51     0.031 C 
HETATM   29  C3  0ZG E   1      11.293  19.036   4.530  1.00 21.05    -0.004 A 
HETATM   30  C2  0ZG E   1      10.780  20.216   5.009  1.00 20.33     0.013 A 
ENDBRANCH  21  24
ENDBRANCH  20  21
ENDBRANCH   1  20
TORSDOF 7
