REMARK VINA RESULT:      -6.1      9.828     12.756
REMARK  7 active torsions:
REMARK  status: ('A' for Active; 'I' for Inactive)
REMARK    1  A    between atoms: S_1  and  C1_4 
REMARK    2  A    between atoms: S_1  and  N_17 
REMARK       I    between atoms: N1_11  and  C7_19 
REMARK    3  A    between atoms: N_17  and  CA_18 
REMARK    4  A    between atoms: CA_18  and  CB_21 
REMARK    5  A    between atoms: CA_18  and  C7_19 
REMARK    6  A    between atoms: CB_21  and  CG_22 
REMARK    7  A    between atoms: CE1_25  and  CF_28 
ROOT
HETATM    1  CA  0ZG E   1      -0.113   1.265  21.221  1.00 14.15     0.198 C 
ENDROOT
BRANCH   1   2
HETATM    2  CB  0ZG E   1       0.355   0.676  22.564  1.00 12.21     0.061 C 
BRANCH   2   3
HETATM    3  CG  0ZG E   1       0.751  -0.805  22.558  1.00 10.71    -0.020 A 
HETATM    4  CD2 0ZG E   1      -0.019  -1.736  21.886  1.00  9.73    -0.004 A 
HETATM    5  CE2 0ZG E   1       0.385  -3.049  21.868  1.00  9.59    -0.000 A 
HETATM    6  CZ  0ZG E   1       1.540  -3.468  22.498  1.00  9.52     0.003 A 
HETATM    7  CE1 0ZG E   1       2.343  -2.552  23.181  1.00  9.60     0.039 A 
HETATM    8  CD1 0ZG E   1       1.902  -1.242  23.183  1.00  9.96    -0.001 A 
BRANCH   7   9
HETATM    9  CF  0ZG E   1       3.536  -2.946  23.810  1.00  9.03     0.205 C 
HETATM   10  NG2 0ZG E   1       4.331  -3.869  23.233  1.00  9.25    -0.125 N 
HETATM   11  NG1 0ZG E   1       3.882  -2.375  24.978  1.00  8.04    -0.125 N 
ENDBRANCH   7   9
ENDBRANCH   2   3
ENDBRANCH   1   2
BRANCH   1  12
HETATM   12  C7  0ZG E   1      -0.770   2.647  21.424  1.00 13.65     0.257 C 
HETATM   13  N1  0ZG E   1      -2.094   2.750  21.649  1.00 13.52    -0.319 N 
HETATM   14  C21 0ZG E   1      -2.992   1.601  21.803  1.00 13.23     0.104 C 
HETATM   15  C61 0ZG E   1      -2.703   4.021  22.000  1.00 13.12     0.104 C 
HETATM   16  C31 0ZG E   1      -4.130   1.826  20.832  1.00 12.92     0.024 C 
HETATM   17  C41 0ZG E   1      -4.753   3.194  21.065  1.00 12.86     0.004 C 
HETATM   18  C51 0ZG E   1      -3.730   4.291  20.936  1.00 12.95     0.024 C 
HETATM   19  O   0ZG E   1      -0.042   3.655  21.425  1.00 12.79    -0.270 OA
ENDBRANCH   1  12
BRANCH   1  20
HETATM   20  N   0ZG E   1       1.020   1.315  20.298  1.00 16.26    -0.177 NA
BRANCH  20  21
HETATM   21  S   0ZG E   1       1.007   0.361  18.905  1.00 18.07     0.282 S 
HETATM   22  O2S 0ZG E   1       1.352   1.251  17.717  1.00 18.65    -0.199 OA
HETATM   23  O1S 0ZG E   1      -0.377  -0.262  18.804  1.00 18.26    -0.199 OA
BRANCH  21  24
HETATM   24  C1  0ZG E   1       2.170  -1.009  19.053  1.00 19.32     0.105 A 
HETATM   25  C6  0ZG E   1       3.316  -0.918  19.827  1.00 19.98     0.013 A 
HETATM   26  C5  0ZG E   1       4.071  -2.061  20.028  1.00 20.90    -0.004 A 
HETATM   27  C4  0ZG E   1       3.669  -3.262  19.442  1.00 21.71    -0.022 A 
HETATM   28  C   0ZG E   1       4.460  -4.551  19.681  1.00 22.51     0.031 C 
HETATM   29  C3  0ZG E   1       2.547  -3.332  18.638  1.00 21.05    -0.004 A 
HETATM   30  C2  0ZG E   1       1.799  -2.198  18.444  1.00 20.33     0.013 A 
ENDBRANCH  21  24
ENDBRANCH  20  21
ENDBRANCH   1  20
TORSDOF 7
