REMARK VINA RESULT:      -6.2      8.490     10.806
REMARK  7 active torsions:
REMARK  status: ('A' for Active; 'I' for Inactive)
REMARK    1  A    between atoms: S_1  and  C1_4 
REMARK    2  A    between atoms: S_1  and  N_17 
REMARK       I    between atoms: N1_11  and  C7_19 
REMARK    3  A    between atoms: N_17  and  CA_18 
REMARK    4  A    between atoms: CA_18  and  CB_21 
REMARK    5  A    between atoms: CA_18  and  C7_19 
REMARK    6  A    between atoms: CB_21  and  CG_22 
REMARK    7  A    between atoms: CE1_25  and  CF_28 
ROOT
HETATM    1  CA  0ZG E   1      -2.710   3.706  21.570  1.00 14.15     0.198 C 
ENDROOT
BRANCH   1   2
HETATM    2  CB  0ZG E   1      -3.426   2.426  21.103  1.00 12.21     0.061 C 
BRANCH   2   3
HETATM    3  CG  0ZG E   1      -2.553   1.177  20.940  1.00 10.71    -0.020 A 
HETATM    4  CD2 0ZG E   1      -3.019  -0.064  21.334  1.00  9.73    -0.004 A 
HETATM    5  CE2 0ZG E   1      -2.226  -1.169  21.138  1.00  9.59    -0.000 A 
HETATM    6  CZ  0ZG E   1      -0.977  -1.079  20.556  1.00  9.52     0.003 A 
HETATM    7  CE1 0ZG E   1      -0.478   0.159  20.144  1.00  9.60     0.039 A 
HETATM    8  CD1 0ZG E   1      -1.301   1.247  20.362  1.00  9.96    -0.001 A 
BRANCH   7   9
HETATM    9  CF  0ZG E   1       0.778   0.276  19.526  1.00  9.03     0.205 C 
HETATM   10  NG2 0ZG E   1       0.880   0.824  18.299  1.00  9.25    -0.125 N 
HETATM   11  NG1 0ZG E   1       1.874  -0.146  20.183  1.00  8.04    -0.125 N 
ENDBRANCH   7   9
ENDBRANCH   2   3
ENDBRANCH   1   2
BRANCH   1  12
HETATM   12  C7  0ZG E   1      -3.461   4.966  21.089  1.00 13.65     0.257 C 
HETATM   13  N1  0ZG E   1      -2.896   5.802  20.197  1.00 13.52    -0.319 N 
HETATM   14  C21 0ZG E   1      -1.599   5.563  19.555  1.00 13.23     0.104 C 
HETATM   15  C61 0ZG E   1      -3.645   6.900  19.613  1.00 13.12     0.104 C 
HETATM   16  C31 0ZG E   1      -0.784   6.818  19.777  1.00 12.92     0.024 C 
HETATM   17  C41 0ZG E   1      -1.555   8.034  19.288  1.00 12.86     0.004 C 
HETATM   18  C51 0ZG E   1      -2.891   8.149  19.974  1.00 12.95     0.024 C 
HETATM   19  O   0ZG E   1      -4.615   5.162  21.505  1.00 12.79    -0.270 OA
ENDBRANCH   1  12
BRANCH   1  20
HETATM   20  N   0ZG E   1      -2.556   3.668  23.024  1.00 16.26    -0.177 NA
BRANCH  20  21
HETATM   21  S   0ZG E   1      -1.032   3.397  23.698  1.00 18.07     0.282 S 
HETATM   22  O2S 0ZG E   1      -0.910   4.253  24.952  1.00 18.65    -0.199 OA
HETATM   23  O1S 0ZG E   1      -0.005   3.746  22.632  1.00 18.26    -0.199 OA
BRANCH  21  24
HETATM   24  C1  0ZG E   1      -0.797   1.650  24.076  1.00 19.32     0.105 A 
HETATM   25  C6  0ZG E   1      -1.790   0.889  24.673  1.00 19.98     0.013 A 
HETATM   26  C5  0ZG E   1      -1.601  -0.479  24.779  1.00 20.90    -0.004 A 
HETATM   27  C4  0ZG E   1      -0.423  -1.050  24.296  1.00 21.71    -0.022 A 
HETATM   28  C   0ZG E   1      -0.205  -2.564  24.360  1.00 22.51     0.031 C 
HETATM   29  C3  0ZG E   1       0.578  -0.276  23.740  1.00 21.05    -0.004 A 
HETATM   30  C2  0ZG E   1       0.386   1.079  23.634  1.00 20.33     0.013 A 
ENDBRANCH  21  24
ENDBRANCH  20  21
ENDBRANCH   1  20
TORSDOF 7
