MODEL 1
REMARK VINA RESULT:      -6.3      0.000      0.000
REMARK  7 active torsions:
REMARK  status: ('A' for Active; 'I' for Inactive)
REMARK    1  A    between atoms: S_1  and  C1_4 
REMARK    2  A    between atoms: S_1  and  N_17 
REMARK       I    between atoms: N1_11  and  C7_19 
REMARK    3  A    between atoms: N_17  and  CA_18 
REMARK    4  A    between atoms: CA_18  and  CB_21 
REMARK    5  A    between atoms: CA_18  and  C7_19 
REMARK    6  A    between atoms: CB_21  and  CG_22 
REMARK    7  A    between atoms: CE1_25  and  CF_28 
ROOT
HETATM    1  CA  0ZG E   1      -1.830   7.328  31.131  1.00 14.15     0.198 C 
ENDROOT
BRANCH   1   2
HETATM    2  CB  0ZG E   1      -1.136   7.240  29.760  1.00 12.21     0.061 C 
BRANCH   2   3
HETATM    3  CG  0ZG E   1      -1.312   5.925  28.990  1.00 10.71    -0.020 A 
HETATM    4  CD2 0ZG E   1      -1.787   5.929  27.692  1.00  9.73    -0.004 A 
HETATM    5  CE2 0ZG E   1      -1.897   4.737  27.018  1.00  9.59    -0.000 A 
HETATM    6  CZ  0ZG E   1      -1.543   3.534  27.596  1.00  9.52     0.003 A 
HETATM    7  CE1 0ZG E   1      -1.055   3.496  28.904  1.00  9.60     0.039 A 
HETATM    8  CD1 0ZG E   1      -0.964   4.713  29.553  1.00  9.96    -0.001 A 
BRANCH   7   9
HETATM    9  CF  0ZG E   1      -0.664   2.289  29.508  1.00  9.03     0.205 C 
HETATM   10  NG2 0ZG E   1      -0.092   1.318  28.769  1.00  9.25    -0.125 N 
HETATM   11  NG1 0ZG E   1      -0.847   2.128  30.831  1.00  8.04    -0.125 N 
ENDBRANCH   7   9
ENDBRANCH   2   3
ENDBRANCH   1   2
BRANCH   1  12
HETATM   12  C7  0ZG E   1      -1.139   8.372  32.034  1.00 13.65     0.257 C 
HETATM   13  N1  0ZG E   1      -1.037   8.170  33.361  1.00 13.52    -0.319 N 
HETATM   14  C21 0ZG E   1      -1.480   6.948  34.041  1.00 13.23     0.104 C 
HETATM   15  C61 0ZG E   1      -0.253   9.057  34.201  1.00 13.12     0.104 C 
HETATM   16  C31 0ZG E   1      -2.383   7.400  35.167  1.00 12.92     0.024 C 
HETATM   17  C41 0ZG E   1      -1.666   8.423  36.035  1.00 12.86     0.004 C 
HETATM   18  C51 0ZG E   1      -1.209   9.606  35.223  1.00 12.95     0.024 C 
HETATM   19  O   0ZG E   1      -0.635   9.375  31.500  1.00 12.79    -0.270 OA
ENDBRANCH   1  12
BRANCH   1  20
HETATM   20  N   0ZG E   1      -3.251   7.615  30.932  1.00 16.26    -0.177 NA
BRANCH  20  21
HETATM   21  S   0ZG E   1      -4.390   6.387  31.141  1.00 18.07     0.282 S 
HETATM   22  O2S 0ZG E   1      -5.541   6.943  31.970  1.00 18.65    -0.199 OA
HETATM   23  O1S 0ZG E   1      -3.675   5.225  31.814  1.00 18.26    -0.199 OA
BRANCH  21  24
HETATM   24  C1  0ZG E   1      -4.971   5.770  29.550  1.00 19.32     0.105 A 
HETATM   25  C6  0ZG E   1      -5.280   6.623  28.502  1.00 19.98     0.013 A 
HETATM   26  C5  0ZG E   1      -5.558   6.074  27.261  1.00 20.90    -0.004 A 
HETATM   27  C4  0ZG E   1      -5.529   4.687  27.101  1.00 21.71    -0.022 A 
HETATM   28  C   0ZG E   1      -5.789   4.053  25.732  1.00 22.51     0.031 C 
HETATM   29  C3  0ZG E   1      -5.259   3.845  28.163  1.00 21.05    -0.004 A 
HETATM   30  C2  0ZG E   1      -4.982   4.393  29.391  1.00 20.33     0.013 A 
ENDBRANCH  21  24
ENDBRANCH  20  21
ENDBRANCH   1  20
TORSDOF 7
ENDMDL
MODEL 2
REMARK VINA RESULT:      -6.2      7.553     11.038
REMARK  7 active torsions:
REMARK  status: ('A' for Active; 'I' for Inactive)
REMARK    1  A    between atoms: S_1  and  C1_4 
REMARK    2  A    between atoms: S_1  and  N_17 
REMARK       I    between atoms: N1_11  and  C7_19 
REMARK    3  A    between atoms: N_17  and  CA_18 
REMARK    4  A    between atoms: CA_18  and  CB_21 
REMARK    5  A    between atoms: CA_18  and  C7_19 
REMARK    6  A    between atoms: CB_21  and  CG_22 
REMARK    7  A    between atoms: CE1_25  and  CF_28 
ROOT
HETATM    1  CA  0ZG E   1      -0.543   2.270  21.927  1.00 14.15     0.198 C 
ENDROOT
BRANCH   1   2
HETATM    2  CB  0ZG E   1      -0.402   3.738  21.486  1.00 12.21     0.061 C 
BRANCH   2   3
HETATM    3  CG  0ZG E   1      -1.668   4.411  20.942  1.00 10.71    -0.020 A 
HETATM    4  CD2 0ZG E   1      -2.839   3.692  20.794  1.00  9.73    -0.004 A 
HETATM    5  CE2 0ZG E   1      -3.965   4.335  20.339  1.00  9.59    -0.000 A 
HETATM    6  CZ  0ZG E   1      -3.964   5.680  20.029  1.00  9.52     0.003 A 
HETATM    7  CE1 0ZG E   1      -2.799   6.436  20.171  1.00  9.60     0.039 A 
HETATM    8  CD1 0ZG E   1      -1.685   5.755  20.625  1.00  9.96    -0.001 A 
BRANCH   7   9
HETATM    9  CF  0ZG E   1      -2.776   7.812  19.887  1.00  9.03     0.205 C 
HETATM   10  NG2 0ZG E   1      -1.620   8.412  19.541  1.00  9.25    -0.125 N 
HETATM   11  NG1 0ZG E   1      -3.923   8.512  19.944  1.00  8.04    -0.125 N 
ENDBRANCH   7   9
ENDBRANCH   2   3
ENDBRANCH   1   2
BRANCH   1  12
HETATM   12  C7  0ZG E   1      -0.049   1.312  20.822  1.00 13.65     0.257 C 
HETATM   13  N1  0ZG E   1      -0.704   0.163  20.567  1.00 13.52    -0.319 N 
HETATM   14  C21 0ZG E   1      -1.951  -0.235  21.229  1.00 13.23     0.104 C 
HETATM   15  C61 0ZG E   1      -0.351  -0.670  19.431  1.00 13.12     0.104 C 
HETATM   16  C31 0ZG E   1      -1.714  -1.629  21.763  1.00 12.92     0.024 C 
HETATM   17  C41 0ZG E   1      -1.232  -2.543  20.646  1.00 12.86     0.004 C 
HETATM   18  C51 0ZG E   1       0.020  -2.009  20.004  1.00 12.95     0.024 C 
HETATM   19  O   0ZG E   1       0.935   1.650  20.142  1.00 12.79    -0.270 OA
ENDBRANCH   1  12
BRANCH   1  20
HETATM   20  N   0ZG E   1       0.165   2.078  23.192  1.00 16.26    -0.177 NA
BRANCH  20  21
HETATM   21  S   0ZG E   1      -0.711   1.908  24.625  1.00 18.07     0.282 S 
HETATM   22  O2S 0ZG E   1       0.081   2.568  25.746  1.00 18.65    -0.199 OA
HETATM   23  O1S 0ZG E   1      -0.928   0.418  24.841  1.00 18.26    -0.199 OA
BRANCH  21  24
HETATM   24  C1  0ZG E   1      -2.351   2.641  24.466  1.00 19.32     0.105 A 
HETATM   25  C6  0ZG E   1      -2.561   4.004  24.604  1.00 19.98     0.013 A 
HETATM   26  C5  0ZG E   1      -3.813   4.514  24.304  1.00 20.90    -0.004 A 
HETATM   27  C4  0ZG E   1      -4.825   3.649  23.885  1.00 21.71    -0.022 A 
HETATM   28  C   0ZG E   1      -6.207   4.189  23.505  1.00 22.51     0.031 C 
HETATM   29  C3  0ZG E   1      -4.616   2.286  23.791  1.00 21.05    -0.004 A 
HETATM   30  C2  0ZG E   1      -3.372   1.785  24.086  1.00 20.33     0.013 A 
ENDBRANCH  21  24
ENDBRANCH  20  21
ENDBRANCH   1  20
TORSDOF 7
ENDMDL
MODEL 3
REMARK VINA RESULT:      -6.2      8.490     10.806
REMARK  7 active torsions:
REMARK  status: ('A' for Active; 'I' for Inactive)
REMARK    1  A    between atoms: S_1  and  C1_4 
REMARK    2  A    between atoms: S_1  and  N_17 
REMARK       I    between atoms: N1_11  and  C7_19 
REMARK    3  A    between atoms: N_17  and  CA_18 
REMARK    4  A    between atoms: CA_18  and  CB_21 
REMARK    5  A    between atoms: CA_18  and  C7_19 
REMARK    6  A    between atoms: CB_21  and  CG_22 
REMARK    7  A    between atoms: CE1_25  and  CF_28 
ROOT
HETATM    1  CA  0ZG E   1      -2.710   3.706  21.570  1.00 14.15     0.198 C 
ENDROOT
BRANCH   1   2
HETATM    2  CB  0ZG E   1      -3.426   2.426  21.103  1.00 12.21     0.061 C 
BRANCH   2   3
HETATM    3  CG  0ZG E   1      -2.553   1.177  20.940  1.00 10.71    -0.020 A 
HETATM    4  CD2 0ZG E   1      -3.019  -0.064  21.334  1.00  9.73    -0.004 A 
HETATM    5  CE2 0ZG E   1      -2.226  -1.169  21.138  1.00  9.59    -0.000 A 
HETATM    6  CZ  0ZG E   1      -0.977  -1.079  20.556  1.00  9.52     0.003 A 
HETATM    7  CE1 0ZG E   1      -0.478   0.159  20.144  1.00  9.60     0.039 A 
HETATM    8  CD1 0ZG E   1      -1.301   1.247  20.362  1.00  9.96    -0.001 A 
BRANCH   7   9
HETATM    9  CF  0ZG E   1       0.778   0.276  19.526  1.00  9.03     0.205 C 
HETATM   10  NG2 0ZG E   1       0.880   0.824  18.299  1.00  9.25    -0.125 N 
HETATM   11  NG1 0ZG E   1       1.874  -0.146  20.183  1.00  8.04    -0.125 N 
ENDBRANCH   7   9
ENDBRANCH   2   3
ENDBRANCH   1   2
BRANCH   1  12
HETATM   12  C7  0ZG E   1      -3.461   4.966  21.089  1.00 13.65     0.257 C 
HETATM   13  N1  0ZG E   1      -2.896   5.802  20.197  1.00 13.52    -0.319 N 
HETATM   14  C21 0ZG E   1      -1.599   5.563  19.555  1.00 13.23     0.104 C 
HETATM   15  C61 0ZG E   1      -3.645   6.900  19.613  1.00 13.12     0.104 C 
HETATM   16  C31 0ZG E   1      -0.784   6.818  19.777  1.00 12.92     0.024 C 
HETATM   17  C41 0ZG E   1      -1.555   8.034  19.288  1.00 12.86     0.004 C 
HETATM   18  C51 0ZG E   1      -2.891   8.149  19.974  1.00 12.95     0.024 C 
HETATM   19  O   0ZG E   1      -4.615   5.162  21.505  1.00 12.79    -0.270 OA
ENDBRANCH   1  12
BRANCH   1  20
HETATM   20  N   0ZG E   1      -2.556   3.668  23.024  1.00 16.26    -0.177 NA
BRANCH  20  21
HETATM   21  S   0ZG E   1      -1.032   3.397  23.698  1.00 18.07     0.282 S 
HETATM   22  O2S 0ZG E   1      -0.910   4.253  24.952  1.00 18.65    -0.199 OA
HETATM   23  O1S 0ZG E   1      -0.005   3.746  22.632  1.00 18.26    -0.199 OA
BRANCH  21  24
HETATM   24  C1  0ZG E   1      -0.797   1.650  24.076  1.00 19.32     0.105 A 
HETATM   25  C6  0ZG E   1      -1.790   0.889  24.673  1.00 19.98     0.013 A 
HETATM   26  C5  0ZG E   1      -1.601  -0.479  24.779  1.00 20.90    -0.004 A 
HETATM   27  C4  0ZG E   1      -0.423  -1.050  24.296  1.00 21.71    -0.022 A 
HETATM   28  C   0ZG E   1      -0.205  -2.564  24.360  1.00 22.51     0.031 C 
HETATM   29  C3  0ZG E   1       0.578  -0.276  23.740  1.00 21.05    -0.004 A 
HETATM   30  C2  0ZG E   1       0.386   1.079  23.634  1.00 20.33     0.013 A 
ENDBRANCH  21  24
ENDBRANCH  20  21
ENDBRANCH   1  20
TORSDOF 7
ENDMDL
MODEL 4
REMARK VINA RESULT:      -6.2      7.809     11.313
REMARK  7 active torsions:
REMARK  status: ('A' for Active; 'I' for Inactive)
REMARK    1  A    between atoms: S_1  and  C1_4 
REMARK    2  A    between atoms: S_1  and  N_17 
REMARK       I    between atoms: N1_11  and  C7_19 
REMARK    3  A    between atoms: N_17  and  CA_18 
REMARK    4  A    between atoms: CA_18  and  CB_21 
REMARK    5  A    between atoms: CA_18  and  C7_19 
REMARK    6  A    between atoms: CB_21  and  CG_22 
REMARK    7  A    between atoms: CE1_25  and  CF_28 
ROOT
HETATM    1  CA  0ZG E   1      -0.935   2.394  20.633  1.00 14.15     0.198 C 
ENDROOT
BRANCH   1   2
HETATM    2  CB  0ZG E   1      -1.555   3.590  19.888  1.00 12.21     0.061 C 
BRANCH   2   3
HETATM    3  CG  0ZG E   1      -2.862   4.148  20.463  1.00 10.71    -0.020 A 
HETATM    4  CD2 0ZG E   1      -2.986   5.495  20.748  1.00  9.73    -0.004 A 
HETATM    5  CE2 0ZG E   1      -4.185   5.969  21.226  1.00  9.59    -0.000 A 
HETATM    6  CZ  0ZG E   1      -5.271   5.141  21.427  1.00  9.52     0.003 A 
HETATM    7  CE1 0ZG E   1      -5.179   3.776  21.145  1.00  9.60     0.039 A 
HETATM    8  CD1 0ZG E   1      -3.959   3.335  20.672  1.00  9.96    -0.001 A 
BRANCH   7   9
HETATM    9  CF  0ZG E   1      -6.277   2.915  21.316  1.00  9.03     0.205 C 
HETATM   10  NG2 0ZG E   1      -7.383   3.348  21.952  1.00  9.25    -0.125 N 
HETATM   11  NG1 0ZG E   1      -6.214   1.666  20.819  1.00  8.04    -0.125 N 
ENDBRANCH   7   9
ENDBRANCH   2   3
ENDBRANCH   1   2
BRANCH   1  12
HETATM   12  C7  0ZG E   1      -0.397   1.344  19.638  1.00 13.65     0.257 C 
HETATM   13  N1  0ZG E   1      -0.617   0.031  19.843  1.00 13.52    -0.319 N 
HETATM   14  C21 0ZG E   1      -1.429  -0.504  20.940  1.00 13.23     0.104 C 
HETATM   15  C61 0ZG E   1      -0.260  -0.958  18.841  1.00 13.12     0.104 C 
HETATM   16  C31 0ZG E   1      -0.570  -1.539  21.631  1.00 12.92     0.024 C 
HETATM   17  C41 0ZG E   1      -0.063  -2.557  20.621  1.00 12.86     0.004 C 
HETATM   18  C51 0ZG E   1       0.709  -1.891  19.513  1.00 12.95     0.024 C 
HETATM   19  O   0ZG E   1       0.198   1.741  18.622  1.00 12.79    -0.270 OA
ENDBRANCH   1  12
BRANCH   1  20
HETATM   20  N   0ZG E   1       0.098   2.880  21.547  1.00 16.26    -0.177 NA
BRANCH  20  21
HETATM   21  S   0ZG E   1      -0.108   2.704  23.213  1.00 18.07     0.282 S 
HETATM   22  O2S 0ZG E   1       0.864   3.646  23.913  1.00 18.65    -0.199 OA
HETATM   23  O1S 0ZG E   1       0.137   1.239  23.540  1.00 18.26    -0.199 OA
BRANCH  21  24
HETATM   24  C1  0ZG E   1      -1.811   3.052  23.691  1.00 19.32     0.105 A 
HETATM   25  C6  0ZG E   1      -2.766   2.051  23.781  1.00 19.98     0.013 A 
HETATM   26  C5  0ZG E   1      -4.005   2.365  24.314  1.00 20.90    -0.004 A 
HETATM   27  C4  0ZG E   1      -4.262   3.671  24.734  1.00 21.71    -0.022 A 
HETATM   28  C   0ZG E   1      -5.606   4.038  25.368  1.00 22.51     0.031 C 
HETATM   29  C3  0ZG E   1      -3.316   4.670  24.602  1.00 21.05    -0.004 A 
HETATM   30  C2  0ZG E   1      -2.088   4.354  24.075  1.00 20.33     0.013 A 
ENDBRANCH  21  24
ENDBRANCH  20  21
ENDBRANCH   1  20
TORSDOF 7
ENDMDL
MODEL 5
REMARK VINA RESULT:      -6.2     28.231     30.349
REMARK  7 active torsions:
REMARK  status: ('A' for Active; 'I' for Inactive)
REMARK    1  A    between atoms: S_1  and  C1_4 
REMARK    2  A    between atoms: S_1  and  N_17 
REMARK       I    between atoms: N1_11  and  C7_19 
REMARK    3  A    between atoms: N_17  and  CA_18 
REMARK    4  A    between atoms: CA_18  and  CB_21 
REMARK    5  A    between atoms: CA_18  and  C7_19 
REMARK    6  A    between atoms: CB_21  and  CG_22 
REMARK    7  A    between atoms: CE1_25  and  CF_28 
ROOT
HETATM    1  CA  0ZG E   1       7.487  21.039   7.866  1.00 14.15     0.198 C 
ENDROOT
BRANCH   1   2
HETATM    2  CB  0ZG E   1       7.544  19.503   7.946  1.00 12.21     0.061 C 
BRANCH   2   3
HETATM    3  CG  0ZG E   1       7.703  18.755   6.617  1.00 10.71    -0.020 A 
HETATM    4  CD2 0ZG E   1       8.295  17.507   6.578  1.00  9.73    -0.004 A 
HETATM    5  CE2 0ZG E   1       8.386  16.848   5.375  1.00  9.59    -0.000 A 
HETATM    6  CZ  0ZG E   1       7.900  17.394   4.204  1.00  9.52     0.003 A 
HETATM    7  CE1 0ZG E   1       7.292  18.651   4.210  1.00  9.60     0.039 A 
HETATM    8  CD1 0ZG E   1       7.224  19.286   5.435  1.00  9.96    -0.001 A 
BRANCH   7   9
HETATM    9  CF  0ZG E   1       6.766  19.218   3.037  1.00  9.03     0.205 C 
HETATM   10  NG2 0ZG E   1       6.863  18.560   1.865  1.00  9.25    -0.125 N 
HETATM   11  NG1 0ZG E   1       6.149  20.412   3.105  1.00  8.04    -0.125 N 
ENDBRANCH   7   9
ENDBRANCH   2   3
ENDBRANCH   1   2
BRANCH   1  12
HETATM   12  C7  0ZG E   1       6.392  21.600   8.797  1.00 13.65     0.257 C 
HETATM   13  N1  0ZG E   1       5.130  21.756   8.354  1.00 13.52    -0.319 N 
HETATM   14  C21 0ZG E   1       4.671  21.345   7.023  1.00 13.23     0.104 C 
HETATM   15  C61 0ZG E   1       4.054  22.129   9.255  1.00 13.12     0.104 C 
HETATM   16  C31 0ZG E   1       3.993  22.555   6.421  1.00 12.92     0.024 C 
HETATM   17  C41 0ZG E   1       2.919  23.076   7.365  1.00 12.86     0.004 C 
HETATM   18  C51 0ZG E   1       3.493  23.414   8.715  1.00 12.95     0.024 C 
HETATM   19  O   0ZG E   1       6.691  21.856   9.976  1.00 12.79    -0.270 OA
ENDBRANCH   1  12
BRANCH   1  20
HETATM   20  N   0ZG E   1       8.811  21.585   8.167  1.00 16.26    -0.177 NA
BRANCH  20  21
HETATM   21  S   0ZG E   1       9.876  21.940   6.906  1.00 18.07     0.282 S 
HETATM   22  O2S 0ZG E   1      10.842  23.014   7.390  1.00 18.65    -0.199 OA
HETATM   23  O1S 0ZG E   1       9.032  22.384   5.721  1.00 18.26    -0.199 OA
BRANCH  21  24
HETATM   24  C1  0ZG E   1      10.758  20.461   6.373  1.00 19.32     0.105 A 
HETATM   25  C6  0ZG E   1      11.287  19.557   7.281  1.00 19.98     0.013 A 
HETATM   26  C5  0ZG E   1      11.802  18.363   6.802  1.00 20.90    -0.004 A 
HETATM   27  C4  0ZG E   1      11.785  18.109   5.430  1.00 21.71    -0.022 A 
HETATM   28  C   0ZG E   1      12.308  16.781   4.875  1.00 22.51     0.031 C 
HETATM   29  C3  0ZG E   1      11.293  19.036   4.530  1.00 21.05    -0.004 A 
HETATM   30  C2  0ZG E   1      10.780  20.216   5.009  1.00 20.33     0.013 A 
ENDBRANCH  21  24
ENDBRANCH  20  21
ENDBRANCH   1  20
TORSDOF 7
ENDMDL
MODEL 6
REMARK VINA RESULT:      -6.1      7.059     10.250
REMARK  7 active torsions:
REMARK  status: ('A' for Active; 'I' for Inactive)
REMARK    1  A    between atoms: S_1  and  C1_4 
REMARK    2  A    between atoms: S_1  and  N_17 
REMARK       I    between atoms: N1_11  and  C7_19 
REMARK    3  A    between atoms: N_17  and  CA_18 
REMARK    4  A    between atoms: CA_18  and  CB_21 
REMARK    5  A    between atoms: CA_18  and  C7_19 
REMARK    6  A    between atoms: CB_21  and  CG_22 
REMARK    7  A    between atoms: CE1_25  and  CF_28 
ROOT
HETATM    1  CA  0ZG E   1      -2.850   3.842  21.540  1.00 14.15     0.198 C 
ENDROOT
BRANCH   1   2
HETATM    2  CB  0ZG E   1      -3.294   2.637  20.691  1.00 12.21     0.061 C 
BRANCH   2   3
HETATM    3  CG  0ZG E   1      -2.386   1.403  20.732  1.00 10.71    -0.020 A 
HETATM    4  CD2 0ZG E   1      -2.811   0.237  21.341  1.00  9.73    -0.004 A 
HETATM    5  CE2 0ZG E   1      -1.987  -0.863  21.326  1.00  9.59    -0.000 A 
HETATM    6  CZ  0ZG E   1      -0.748  -0.841  20.717  1.00  9.52     0.003 A 
HETATM    7  CE1 0ZG E   1      -0.291   0.320  20.089  1.00  9.60     0.039 A 
HETATM    8  CD1 0ZG E   1      -1.143   1.407  20.130  1.00  9.96    -0.001 A 
BRANCH   7   9
HETATM    9  CF  0ZG E   1       0.955   0.363  19.440  1.00  9.03     0.205 C 
HETATM   10  NG2 0ZG E   1       1.042   0.814  18.174  1.00  9.25    -0.125 N 
HETATM   11  NG1 0ZG E   1       2.055  -0.030  20.107  1.00  8.04    -0.125 N 
ENDBRANCH   7   9
ENDBRANCH   2   3
ENDBRANCH   1   2
BRANCH   1  12
HETATM   12  C7  0ZG E   1      -3.563   5.133  21.082  1.00 13.65     0.257 C 
HETATM   13  N1  0ZG E   1      -2.975   5.964  20.202  1.00 13.52    -0.319 N 
HETATM   14  C21 0ZG E   1      -1.688   5.695  19.551  1.00 13.23     0.104 C 
HETATM   15  C61 0ZG E   1      -3.691   7.095  19.638  1.00 13.12     0.104 C 
HETATM   16  C31 0ZG E   1      -0.833   6.919  19.790  1.00 12.92     0.024 C 
HETATM   17  C41 0ZG E   1      -1.567   8.168  19.323  1.00 12.86     0.004 C 
HETATM   18  C51 0ZG E   1      -2.895   8.313  20.015  1.00 12.95     0.024 C 
HETATM   19  O   0ZG E   1      -4.709   5.358  21.506  1.00 12.79    -0.270 OA
ENDBRANCH   1  12
BRANCH   1  20
HETATM   20  N   0ZG E   1      -3.084   3.546  22.954  1.00 16.26    -0.177 NA
BRANCH  20  21
HETATM   21  S   0ZG E   1      -1.771   3.387  24.003  1.00 18.07     0.282 S 
HETATM   22  O2S 0ZG E   1      -0.558   4.035  23.347  1.00 18.65    -0.199 OA
HETATM   23  O1S 0ZG E   1      -1.588   1.900  24.266  1.00 18.26    -0.199 OA
BRANCH  21  24
HETATM   24  C1  0ZG E   1      -2.130   4.143  25.601  1.00 19.32     0.105 A 
HETATM   25  C6  0ZG E   1      -1.407   3.826  26.740  1.00 19.98     0.013 A 
HETATM   26  C5  0ZG E   1      -1.627   4.566  27.890  1.00 20.90    -0.004 A 
HETATM   27  C4  0ZG E   1      -2.569   5.596  27.875  1.00 21.71    -0.022 A 
HETATM   28  C   0ZG E   1      -2.802   6.459  29.118  1.00 22.51     0.031 C 
HETATM   29  C3  0ZG E   1      -3.313   5.876  26.745  1.00 21.05    -0.004 A 
HETATM   30  C2  0ZG E   1      -3.091   5.142  25.606  1.00 20.33     0.013 A 
ENDBRANCH  21  24
ENDBRANCH  20  21
ENDBRANCH   1  20
TORSDOF 7
ENDMDL
MODEL 7
REMARK VINA RESULT:      -6.1      9.828     12.756
REMARK  7 active torsions:
REMARK  status: ('A' for Active; 'I' for Inactive)
REMARK    1  A    between atoms: S_1  and  C1_4 
REMARK    2  A    between atoms: S_1  and  N_17 
REMARK       I    between atoms: N1_11  and  C7_19 
REMARK    3  A    between atoms: N_17  and  CA_18 
REMARK    4  A    between atoms: CA_18  and  CB_21 
REMARK    5  A    between atoms: CA_18  and  C7_19 
REMARK    6  A    between atoms: CB_21  and  CG_22 
REMARK    7  A    between atoms: CE1_25  and  CF_28 
ROOT
HETATM    1  CA  0ZG E   1      -0.113   1.265  21.221  1.00 14.15     0.198 C 
ENDROOT
BRANCH   1   2
HETATM    2  CB  0ZG E   1       0.355   0.676  22.564  1.00 12.21     0.061 C 
BRANCH   2   3
HETATM    3  CG  0ZG E   1       0.751  -0.805  22.558  1.00 10.71    -0.020 A 
HETATM    4  CD2 0ZG E   1      -0.019  -1.736  21.886  1.00  9.73    -0.004 A 
HETATM    5  CE2 0ZG E   1       0.385  -3.049  21.868  1.00  9.59    -0.000 A 
HETATM    6  CZ  0ZG E   1       1.540  -3.468  22.498  1.00  9.52     0.003 A 
HETATM    7  CE1 0ZG E   1       2.343  -2.552  23.181  1.00  9.60     0.039 A 
HETATM    8  CD1 0ZG E   1       1.902  -1.242  23.183  1.00  9.96    -0.001 A 
BRANCH   7   9
HETATM    9  CF  0ZG E   1       3.536  -2.946  23.810  1.00  9.03     0.205 C 
HETATM   10  NG2 0ZG E   1       4.331  -3.869  23.233  1.00  9.25    -0.125 N 
HETATM   11  NG1 0ZG E   1       3.882  -2.375  24.978  1.00  8.04    -0.125 N 
ENDBRANCH   7   9
ENDBRANCH   2   3
ENDBRANCH   1   2
BRANCH   1  12
HETATM   12  C7  0ZG E   1      -0.770   2.647  21.424  1.00 13.65     0.257 C 
HETATM   13  N1  0ZG E   1      -2.094   2.750  21.649  1.00 13.52    -0.319 N 
HETATM   14  C21 0ZG E   1      -2.992   1.601  21.803  1.00 13.23     0.104 C 
HETATM   15  C61 0ZG E   1      -2.703   4.021  22.000  1.00 13.12     0.104 C 
HETATM   16  C31 0ZG E   1      -4.130   1.826  20.832  1.00 12.92     0.024 C 
HETATM   17  C41 0ZG E   1      -4.753   3.194  21.065  1.00 12.86     0.004 C 
HETATM   18  C51 0ZG E   1      -3.730   4.291  20.936  1.00 12.95     0.024 C 
HETATM   19  O   0ZG E   1      -0.042   3.655  21.425  1.00 12.79    -0.270 OA
ENDBRANCH   1  12
BRANCH   1  20
HETATM   20  N   0ZG E   1       1.020   1.315  20.298  1.00 16.26    -0.177 NA
BRANCH  20  21
HETATM   21  S   0ZG E   1       1.007   0.361  18.905  1.00 18.07     0.282 S 
HETATM   22  O2S 0ZG E   1       1.352   1.251  17.717  1.00 18.65    -0.199 OA
HETATM   23  O1S 0ZG E   1      -0.377  -0.262  18.804  1.00 18.26    -0.199 OA
BRANCH  21  24
HETATM   24  C1  0ZG E   1       2.170  -1.009  19.053  1.00 19.32     0.105 A 
HETATM   25  C6  0ZG E   1       3.316  -0.918  19.827  1.00 19.98     0.013 A 
HETATM   26  C5  0ZG E   1       4.071  -2.061  20.028  1.00 20.90    -0.004 A 
HETATM   27  C4  0ZG E   1       3.669  -3.262  19.442  1.00 21.71    -0.022 A 
HETATM   28  C   0ZG E   1       4.460  -4.551  19.681  1.00 22.51     0.031 C 
HETATM   29  C3  0ZG E   1       2.547  -3.332  18.638  1.00 21.05    -0.004 A 
HETATM   30  C2  0ZG E   1       1.799  -2.198  18.444  1.00 20.33     0.013 A 
ENDBRANCH  21  24
ENDBRANCH  20  21
ENDBRANCH   1  20
TORSDOF 7
ENDMDL
MODEL 8
REMARK VINA RESULT:      -6.1      5.997      9.523
REMARK  7 active torsions:
REMARK  status: ('A' for Active; 'I' for Inactive)
REMARK    1  A    between atoms: S_1  and  C1_4 
REMARK    2  A    between atoms: S_1  and  N_17 
REMARK       I    between atoms: N1_11  and  C7_19 
REMARK    3  A    between atoms: N_17  and  CA_18 
REMARK    4  A    between atoms: CA_18  and  CB_21 
REMARK    5  A    between atoms: CA_18  and  C7_19 
REMARK    6  A    between atoms: CB_21  and  CG_22 
REMARK    7  A    between atoms: CE1_25  and  CF_28 
ROOT
HETATM    1  CA  0ZG E   1      -2.642   4.282  22.758  1.00 14.15     0.198 C 
ENDROOT
BRANCH   1   2
HETATM    2  CB  0ZG E   1      -2.467   4.990  24.114  1.00 12.21     0.061 C 
BRANCH   2   3
HETATM    3  CG  0ZG E   1      -2.455   4.090  25.356  1.00 10.71    -0.020 A 
HETATM    4  CD2 0ZG E   1      -3.052   2.844  25.327  1.00  9.73    -0.004 A 
HETATM    5  CE2 0ZG E   1      -2.990   2.048  26.446  1.00  9.59    -0.000 A 
HETATM    6  CZ  0ZG E   1      -2.346   2.453  27.597  1.00  9.52     0.003 A 
HETATM    7  CE1 0ZG E   1      -1.728   3.704  27.657  1.00  9.60     0.039 A 
HETATM    8  CD1 0ZG E   1      -1.816   4.479  26.517  1.00  9.96    -0.001 A 
BRANCH   7   9
HETATM    9  CF  0ZG E   1      -1.044   4.131  28.808  1.00  9.03     0.205 C 
HETATM   10  NG2 0ZG E   1      -0.276   3.266  29.498  1.00  9.25    -0.125 N 
HETATM   11  NG1 0ZG E   1      -1.149   5.416  29.194  1.00  8.04    -0.125 N 
ENDBRANCH   7   9
ENDBRANCH   2   3
ENDBRANCH   1   2
BRANCH   1  12
HETATM   12  C7  0ZG E   1      -3.559   5.099  21.824  1.00 13.65     0.257 C 
HETATM   13  N1  0ZG E   1      -3.053   5.728  20.746  1.00 13.52    -0.319 N 
HETATM   14  C21 0ZG E   1      -1.652   5.632  20.322  1.00 13.23     0.104 C 
HETATM   15  C61 0ZG E   1      -3.918   6.365  19.769  1.00 13.12     0.104 C 
HETATM   16  C31 0ZG E   1      -1.164   7.055  20.165  1.00 12.92     0.024 C 
HETATM   17  C41 0ZG E   1      -2.090   7.826  19.235  1.00 12.86     0.004 C 
HETATM   18  C51 0ZG E   1      -3.508   7.811  19.739  1.00 12.95     0.024 C 
HETATM   19  O   0ZG E   1      -4.778   5.120  22.061  1.00 12.79    -0.270 OA
ENDBRANCH   1  12
BRANCH   1  20
HETATM   20  N   0ZG E   1      -1.324   4.034  22.173  1.00 16.26    -0.177 NA
BRANCH  20  21
HETATM   21  S   0ZG E   1      -0.749   2.452  22.047  1.00 18.07     0.282 S 
HETATM   22  O2S 0ZG E   1       0.278   2.409  20.922  1.00 18.65    -0.199 OA
HETATM   23  O1S 0ZG E   1      -1.953   1.558  21.793  1.00 18.26    -0.199 OA
BRANCH  21  24
HETATM   24  C1  0ZG E   1      -0.030   1.903  23.606  1.00 19.32     0.105 A 
HETATM   25  C6  0ZG E   1       0.735   2.745  24.397  1.00 19.98     0.013 A 
HETATM   26  C5  0ZG E   1       1.112   2.308  25.656  1.00 20.90    -0.004 A 
HETATM   27  C4  0ZG E   1       0.724   1.039  26.089  1.00 21.71    -0.022 A 
HETATM   28  C   0ZG E   1       1.089   0.546  27.491  1.00 22.51     0.031 C 
HETATM   29  C3  0ZG E   1      -0.004   0.192  25.275  1.00 21.05    -0.004 A 
HETATM   30  C2  0ZG E   1      -0.379   0.629  24.029  1.00 20.33     0.013 A 
ENDBRANCH  21  24
ENDBRANCH  20  21
ENDBRANCH   1  20
TORSDOF 7
ENDMDL
MODEL 9
REMARK VINA RESULT:      -6.0      7.419     11.212
REMARK  7 active torsions:
REMARK  status: ('A' for Active; 'I' for Inactive)
REMARK    1  A    between atoms: S_1  and  C1_4 
REMARK    2  A    between atoms: S_1  and  N_17 
REMARK       I    between atoms: N1_11  and  C7_19 
REMARK    3  A    between atoms: N_17  and  CA_18 
REMARK    4  A    between atoms: CA_18  and  CB_21 
REMARK    5  A    between atoms: CA_18  and  C7_19 
REMARK    6  A    between atoms: CB_21  and  CG_22 
REMARK    7  A    between atoms: CE1_25  and  CF_28 
ROOT
HETATM    1  CA  0ZG E   1      -0.718   2.064  21.320  1.00 14.15     0.198 C 
ENDROOT
BRANCH   1   2
HETATM    2  CB  0ZG E   1      -1.076   2.902  20.079  1.00 12.21     0.061 C 
BRANCH   2   3
HETATM    3  CG  0ZG E   1      -2.215   3.916  20.246  1.00 10.71    -0.020 A 
HETATM    4  CD2 0ZG E   1      -3.422   3.532  20.799  1.00  9.73    -0.004 A 
HETATM    5  CE2 0ZG E   1      -4.408   4.474  20.969  1.00  9.59    -0.000 A 
HETATM    6  CZ  0ZG E   1      -4.229   5.794  20.608  1.00  9.52     0.003 A 
HETATM    7  CE1 0ZG E   1      -3.020   6.215  20.050  1.00  9.60     0.039 A 
HETATM    8  CD1 0ZG E   1      -2.054   5.240  19.889  1.00  9.96    -0.001 A 
BRANCH   7   9
HETATM    9  CF  0ZG E   1      -2.802   7.557  19.697  1.00  9.03     0.205 C 
HETATM   10  NG2 0ZG E   1      -3.749   8.484  19.941  1.00  9.25    -0.125 N 
HETATM   11  NG1 0ZG E   1      -1.630   7.905  19.135  1.00  8.04    -0.125 N 
ENDBRANCH   7   9
ENDBRANCH   2   3
ENDBRANCH   1   2
BRANCH   1  12
HETATM   12  C7  0ZG E   1       0.320   0.977  20.971  1.00 13.65     0.257 C 
HETATM   13  N1  0ZG E   1       0.200  -0.269  21.466  1.00 13.52    -0.319 N 
HETATM   14  C21 0ZG E   1      -0.931  -0.722  22.283  1.00 13.23     0.104 C 
HETATM   15  C61 0ZG E   1       1.072  -1.343  21.024  1.00 13.12     0.104 C 
HETATM   16  C31 0ZG E   1      -0.328  -1.338  23.526  1.00 12.92     0.024 C 
HETATM   17  C41 0ZG E   1       0.685  -2.406  23.142  1.00 12.86     0.004 C 
HETATM   18  C51 0ZG E   1       1.767  -1.841  22.260  1.00 12.95     0.024 C 
HETATM   19  O   0ZG E   1       1.238   1.266  20.185  1.00 12.79    -0.270 OA
ENDBRANCH   1  12
BRANCH   1  20
HETATM   20  N   0ZG E   1      -0.259   2.956  22.385  1.00 16.26    -0.177 NA
BRANCH  20  21
HETATM   21  S   0ZG E   1      -1.059   2.966  23.871  1.00 18.07     0.282 S 
HETATM   22  O2S 0ZG E   1      -2.325   2.130  23.734  1.00 18.65    -0.199 OA
HETATM   23  O1S 0ZG E   1      -1.337   4.421  24.218  1.00 18.26    -0.199 OA
BRANCH  21  24
HETATM   24  C1  0ZG E   1       0.005   2.328  25.179  1.00 19.32     0.105 A 
HETATM   25  C6  0ZG E   1      -0.299   2.502  26.521  1.00 19.98     0.013 A 
HETATM   26  C5  0ZG E   1       0.472   1.842  27.464  1.00 20.90    -0.004 A 
HETATM   27  C4  0ZG E   1       1.531   1.036  27.044  1.00 21.71    -0.022 A 
HETATM   28  C   0ZG E   1       2.373   0.261  28.061  1.00 22.51     0.031 C 
HETATM   29  C3  0ZG E   1       1.850   0.903  25.706  1.00 21.05    -0.004 A 
HETATM   30  C2  0ZG E   1       1.082   1.556  24.774  1.00 20.33     0.013 A 
ENDBRANCH  21  24
ENDBRANCH  20  21
ENDBRANCH   1  20
TORSDOF 7
ENDMDL
