REMARK VINA RESULT:      -6.3      0.000      0.000
REMARK  7 active torsions:
REMARK  status: ('A' for Active; 'I' for Inactive)
REMARK    1  A    between atoms: S_1  and  C1_4 
REMARK    2  A    between atoms: S_1  and  N_17 
REMARK       I    between atoms: N1_11  and  C7_19 
REMARK    3  A    between atoms: N_17  and  CA_18 
REMARK    4  A    between atoms: CA_18  and  CB_21 
REMARK    5  A    between atoms: CA_18  and  C7_19 
REMARK    6  A    between atoms: CB_21  and  CG_22 
REMARK    7  A    between atoms: CE1_25  and  CF_28 
ROOT
HETATM    1  CA  0ZG E   1      -1.830   7.328  31.131  1.00 14.15     0.198 C 
ENDROOT
BRANCH   1   2
HETATM    2  CB  0ZG E   1      -1.136   7.240  29.760  1.00 12.21     0.061 C 
BRANCH   2   3
HETATM    3  CG  0ZG E   1      -1.312   5.925  28.990  1.00 10.71    -0.020 A 
HETATM    4  CD2 0ZG E   1      -1.787   5.929  27.692  1.00  9.73    -0.004 A 
HETATM    5  CE2 0ZG E   1      -1.897   4.737  27.018  1.00  9.59    -0.000 A 
HETATM    6  CZ  0ZG E   1      -1.543   3.534  27.596  1.00  9.52     0.003 A 
HETATM    7  CE1 0ZG E   1      -1.055   3.496  28.904  1.00  9.60     0.039 A 
HETATM    8  CD1 0ZG E   1      -0.964   4.713  29.553  1.00  9.96    -0.001 A 
BRANCH   7   9
HETATM    9  CF  0ZG E   1      -0.664   2.289  29.508  1.00  9.03     0.205 C 
HETATM   10  NG2 0ZG E   1      -0.092   1.318  28.769  1.00  9.25    -0.125 N 
HETATM   11  NG1 0ZG E   1      -0.847   2.128  30.831  1.00  8.04    -0.125 N 
ENDBRANCH   7   9
ENDBRANCH   2   3
ENDBRANCH   1   2
BRANCH   1  12
HETATM   12  C7  0ZG E   1      -1.139   8.372  32.034  1.00 13.65     0.257 C 
HETATM   13  N1  0ZG E   1      -1.037   8.170  33.361  1.00 13.52    -0.319 N 
HETATM   14  C21 0ZG E   1      -1.480   6.948  34.041  1.00 13.23     0.104 C 
HETATM   15  C61 0ZG E   1      -0.253   9.057  34.201  1.00 13.12     0.104 C 
HETATM   16  C31 0ZG E   1      -2.383   7.400  35.167  1.00 12.92     0.024 C 
HETATM   17  C41 0ZG E   1      -1.666   8.423  36.035  1.00 12.86     0.004 C 
HETATM   18  C51 0ZG E   1      -1.209   9.606  35.223  1.00 12.95     0.024 C 
HETATM   19  O   0ZG E   1      -0.635   9.375  31.500  1.00 12.79    -0.270 OA
ENDBRANCH   1  12
BRANCH   1  20
HETATM   20  N   0ZG E   1      -3.251   7.615  30.932  1.00 16.26    -0.177 NA
BRANCH  20  21
HETATM   21  S   0ZG E   1      -4.390   6.387  31.141  1.00 18.07     0.282 S 
HETATM   22  O2S 0ZG E   1      -5.541   6.943  31.970  1.00 18.65    -0.199 OA
HETATM   23  O1S 0ZG E   1      -3.675   5.225  31.814  1.00 18.26    -0.199 OA
BRANCH  21  24
HETATM   24  C1  0ZG E   1      -4.971   5.770  29.550  1.00 19.32     0.105 A 
HETATM   25  C6  0ZG E   1      -5.280   6.623  28.502  1.00 19.98     0.013 A 
HETATM   26  C5  0ZG E   1      -5.558   6.074  27.261  1.00 20.90    -0.004 A 
HETATM   27  C4  0ZG E   1      -5.529   4.687  27.101  1.00 21.71    -0.022 A 
HETATM   28  C   0ZG E   1      -5.789   4.053  25.732  1.00 22.51     0.031 C 
HETATM   29  C3  0ZG E   1      -5.259   3.845  28.163  1.00 21.05    -0.004 A 
HETATM   30  C2  0ZG E   1      -4.982   4.393  29.391  1.00 20.33     0.013 A 
ENDBRANCH  21  24
ENDBRANCH  20  21
ENDBRANCH   1  20
TORSDOF 7
