REMARK VINA RESULT:      -6.0      7.419     11.212
REMARK  7 active torsions:
REMARK  status: ('A' for Active; 'I' for Inactive)
REMARK    1  A    between atoms: S_1  and  C1_4 
REMARK    2  A    between atoms: S_1  and  N_17 
REMARK       I    between atoms: N1_11  and  C7_19 
REMARK    3  A    between atoms: N_17  and  CA_18 
REMARK    4  A    between atoms: CA_18  and  CB_21 
REMARK    5  A    between atoms: CA_18  and  C7_19 
REMARK    6  A    between atoms: CB_21  and  CG_22 
REMARK    7  A    between atoms: CE1_25  and  CF_28 
ROOT
HETATM    1  CA  0ZG E   1      -0.718   2.064  21.320  1.00 14.15     0.198 C 
ENDROOT
BRANCH   1   2
HETATM    2  CB  0ZG E   1      -1.076   2.902  20.079  1.00 12.21     0.061 C 
BRANCH   2   3
HETATM    3  CG  0ZG E   1      -2.215   3.916  20.246  1.00 10.71    -0.020 A 
HETATM    4  CD2 0ZG E   1      -3.422   3.532  20.799  1.00  9.73    -0.004 A 
HETATM    5  CE2 0ZG E   1      -4.408   4.474  20.969  1.00  9.59    -0.000 A 
HETATM    6  CZ  0ZG E   1      -4.229   5.794  20.608  1.00  9.52     0.003 A 
HETATM    7  CE1 0ZG E   1      -3.020   6.215  20.050  1.00  9.60     0.039 A 
HETATM    8  CD1 0ZG E   1      -2.054   5.240  19.889  1.00  9.96    -0.001 A 
BRANCH   7   9
HETATM    9  CF  0ZG E   1      -2.802   7.557  19.697  1.00  9.03     0.205 C 
HETATM   10  NG2 0ZG E   1      -3.749   8.484  19.941  1.00  9.25    -0.125 N 
HETATM   11  NG1 0ZG E   1      -1.630   7.905  19.135  1.00  8.04    -0.125 N 
ENDBRANCH   7   9
ENDBRANCH   2   3
ENDBRANCH   1   2
BRANCH   1  12
HETATM   12  C7  0ZG E   1       0.320   0.977  20.971  1.00 13.65     0.257 C 
HETATM   13  N1  0ZG E   1       0.200  -0.269  21.466  1.00 13.52    -0.319 N 
HETATM   14  C21 0ZG E   1      -0.931  -0.722  22.283  1.00 13.23     0.104 C 
HETATM   15  C61 0ZG E   1       1.072  -1.343  21.024  1.00 13.12     0.104 C 
HETATM   16  C31 0ZG E   1      -0.328  -1.338  23.526  1.00 12.92     0.024 C 
HETATM   17  C41 0ZG E   1       0.685  -2.406  23.142  1.00 12.86     0.004 C 
HETATM   18  C51 0ZG E   1       1.767  -1.841  22.260  1.00 12.95     0.024 C 
HETATM   19  O   0ZG E   1       1.238   1.266  20.185  1.00 12.79    -0.270 OA
ENDBRANCH   1  12
BRANCH   1  20
HETATM   20  N   0ZG E   1      -0.259   2.956  22.385  1.00 16.26    -0.177 NA
BRANCH  20  21
HETATM   21  S   0ZG E   1      -1.059   2.966  23.871  1.00 18.07     0.282 S 
HETATM   22  O2S 0ZG E   1      -2.325   2.130  23.734  1.00 18.65    -0.199 OA
HETATM   23  O1S 0ZG E   1      -1.337   4.421  24.218  1.00 18.26    -0.199 OA
BRANCH  21  24
HETATM   24  C1  0ZG E   1       0.005   2.328  25.179  1.00 19.32     0.105 A 
HETATM   25  C6  0ZG E   1      -0.299   2.502  26.521  1.00 19.98     0.013 A 
HETATM   26  C5  0ZG E   1       0.472   1.842  27.464  1.00 20.90    -0.004 A 
HETATM   27  C4  0ZG E   1       1.531   1.036  27.044  1.00 21.71    -0.022 A 
HETATM   28  C   0ZG E   1       2.373   0.261  28.061  1.00 22.51     0.031 C 
HETATM   29  C3  0ZG E   1       1.850   0.903  25.706  1.00 21.05    -0.004 A 
HETATM   30  C2  0ZG E   1       1.082   1.556  24.774  1.00 20.33     0.013 A 
ENDBRANCH  21  24
ENDBRANCH  20  21
ENDBRANCH   1  20
TORSDOF 7
