REMARK VINA RESULT:      -6.1      5.997      9.523
REMARK  7 active torsions:
REMARK  status: ('A' for Active; 'I' for Inactive)
REMARK    1  A    between atoms: S_1  and  C1_4 
REMARK    2  A    between atoms: S_1  and  N_17 
REMARK       I    between atoms: N1_11  and  C7_19 
REMARK    3  A    between atoms: N_17  and  CA_18 
REMARK    4  A    between atoms: CA_18  and  CB_21 
REMARK    5  A    between atoms: CA_18  and  C7_19 
REMARK    6  A    between atoms: CB_21  and  CG_22 
REMARK    7  A    between atoms: CE1_25  and  CF_28 
ROOT
HETATM    1  CA  0ZG E   1      -2.642   4.282  22.758  1.00 14.15     0.198 C 
ENDROOT
BRANCH   1   2
HETATM    2  CB  0ZG E   1      -2.467   4.990  24.114  1.00 12.21     0.061 C 
BRANCH   2   3
HETATM    3  CG  0ZG E   1      -2.455   4.090  25.356  1.00 10.71    -0.020 A 
HETATM    4  CD2 0ZG E   1      -3.052   2.844  25.327  1.00  9.73    -0.004 A 
HETATM    5  CE2 0ZG E   1      -2.990   2.048  26.446  1.00  9.59    -0.000 A 
HETATM    6  CZ  0ZG E   1      -2.346   2.453  27.597  1.00  9.52     0.003 A 
HETATM    7  CE1 0ZG E   1      -1.728   3.704  27.657  1.00  9.60     0.039 A 
HETATM    8  CD1 0ZG E   1      -1.816   4.479  26.517  1.00  9.96    -0.001 A 
BRANCH   7   9
HETATM    9  CF  0ZG E   1      -1.044   4.131  28.808  1.00  9.03     0.205 C 
HETATM   10  NG2 0ZG E   1      -0.276   3.266  29.498  1.00  9.25    -0.125 N 
HETATM   11  NG1 0ZG E   1      -1.149   5.416  29.194  1.00  8.04    -0.125 N 
ENDBRANCH   7   9
ENDBRANCH   2   3
ENDBRANCH   1   2
BRANCH   1  12
HETATM   12  C7  0ZG E   1      -3.559   5.099  21.824  1.00 13.65     0.257 C 
HETATM   13  N1  0ZG E   1      -3.053   5.728  20.746  1.00 13.52    -0.319 N 
HETATM   14  C21 0ZG E   1      -1.652   5.632  20.322  1.00 13.23     0.104 C 
HETATM   15  C61 0ZG E   1      -3.918   6.365  19.769  1.00 13.12     0.104 C 
HETATM   16  C31 0ZG E   1      -1.164   7.055  20.165  1.00 12.92     0.024 C 
HETATM   17  C41 0ZG E   1      -2.090   7.826  19.235  1.00 12.86     0.004 C 
HETATM   18  C51 0ZG E   1      -3.508   7.811  19.739  1.00 12.95     0.024 C 
HETATM   19  O   0ZG E   1      -4.778   5.120  22.061  1.00 12.79    -0.270 OA
ENDBRANCH   1  12
BRANCH   1  20
HETATM   20  N   0ZG E   1      -1.324   4.034  22.173  1.00 16.26    -0.177 NA
BRANCH  20  21
HETATM   21  S   0ZG E   1      -0.749   2.452  22.047  1.00 18.07     0.282 S 
HETATM   22  O2S 0ZG E   1       0.278   2.409  20.922  1.00 18.65    -0.199 OA
HETATM   23  O1S 0ZG E   1      -1.953   1.558  21.793  1.00 18.26    -0.199 OA
BRANCH  21  24
HETATM   24  C1  0ZG E   1      -0.030   1.903  23.606  1.00 19.32     0.105 A 
HETATM   25  C6  0ZG E   1       0.735   2.745  24.397  1.00 19.98     0.013 A 
HETATM   26  C5  0ZG E   1       1.112   2.308  25.656  1.00 20.90    -0.004 A 
HETATM   27  C4  0ZG E   1       0.724   1.039  26.089  1.00 21.71    -0.022 A 
HETATM   28  C   0ZG E   1       1.089   0.546  27.491  1.00 22.51     0.031 C 
HETATM   29  C3  0ZG E   1      -0.004   0.192  25.275  1.00 21.05    -0.004 A 
HETATM   30  C2  0ZG E   1      -0.379   0.629  24.029  1.00 20.33     0.013 A 
ENDBRANCH  21  24
ENDBRANCH  20  21
ENDBRANCH   1  20
TORSDOF 7
