REMARK VINA RESULT:      -6.2      7.553     11.038
REMARK  7 active torsions:
REMARK  status: ('A' for Active; 'I' for Inactive)
REMARK    1  A    between atoms: S_1  and  C1_4 
REMARK    2  A    between atoms: S_1  and  N_17 
REMARK       I    between atoms: N1_11  and  C7_19 
REMARK    3  A    between atoms: N_17  and  CA_18 
REMARK    4  A    between atoms: CA_18  and  CB_21 
REMARK    5  A    between atoms: CA_18  and  C7_19 
REMARK    6  A    between atoms: CB_21  and  CG_22 
REMARK    7  A    between atoms: CE1_25  and  CF_28 
ROOT
HETATM    1  CA  0ZG E   1      -0.543   2.270  21.927  1.00 14.15     0.198 C 
ENDROOT
BRANCH   1   2
HETATM    2  CB  0ZG E   1      -0.402   3.738  21.486  1.00 12.21     0.061 C 
BRANCH   2   3
HETATM    3  CG  0ZG E   1      -1.668   4.411  20.942  1.00 10.71    -0.020 A 
HETATM    4  CD2 0ZG E   1      -2.839   3.692  20.794  1.00  9.73    -0.004 A 
HETATM    5  CE2 0ZG E   1      -3.965   4.335  20.339  1.00  9.59    -0.000 A 
HETATM    6  CZ  0ZG E   1      -3.964   5.680  20.029  1.00  9.52     0.003 A 
HETATM    7  CE1 0ZG E   1      -2.799   6.436  20.171  1.00  9.60     0.039 A 
HETATM    8  CD1 0ZG E   1      -1.685   5.755  20.625  1.00  9.96    -0.001 A 
BRANCH   7   9
HETATM    9  CF  0ZG E   1      -2.776   7.812  19.887  1.00  9.03     0.205 C 
HETATM   10  NG2 0ZG E   1      -1.620   8.412  19.541  1.00  9.25    -0.125 N 
HETATM   11  NG1 0ZG E   1      -3.923   8.512  19.944  1.00  8.04    -0.125 N 
ENDBRANCH   7   9
ENDBRANCH   2   3
ENDBRANCH   1   2
BRANCH   1  12
HETATM   12  C7  0ZG E   1      -0.049   1.312  20.822  1.00 13.65     0.257 C 
HETATM   13  N1  0ZG E   1      -0.704   0.163  20.567  1.00 13.52    -0.319 N 
HETATM   14  C21 0ZG E   1      -1.951  -0.235  21.229  1.00 13.23     0.104 C 
HETATM   15  C61 0ZG E   1      -0.351  -0.670  19.431  1.00 13.12     0.104 C 
HETATM   16  C31 0ZG E   1      -1.714  -1.629  21.763  1.00 12.92     0.024 C 
HETATM   17  C41 0ZG E   1      -1.232  -2.543  20.646  1.00 12.86     0.004 C 
HETATM   18  C51 0ZG E   1       0.020  -2.009  20.004  1.00 12.95     0.024 C 
HETATM   19  O   0ZG E   1       0.935   1.650  20.142  1.00 12.79    -0.270 OA
ENDBRANCH   1  12
BRANCH   1  20
HETATM   20  N   0ZG E   1       0.165   2.078  23.192  1.00 16.26    -0.177 NA
BRANCH  20  21
HETATM   21  S   0ZG E   1      -0.711   1.908  24.625  1.00 18.07     0.282 S 
HETATM   22  O2S 0ZG E   1       0.081   2.568  25.746  1.00 18.65    -0.199 OA
HETATM   23  O1S 0ZG E   1      -0.928   0.418  24.841  1.00 18.26    -0.199 OA
BRANCH  21  24
HETATM   24  C1  0ZG E   1      -2.351   2.641  24.466  1.00 19.32     0.105 A 
HETATM   25  C6  0ZG E   1      -2.561   4.004  24.604  1.00 19.98     0.013 A 
HETATM   26  C5  0ZG E   1      -3.813   4.514  24.304  1.00 20.90    -0.004 A 
HETATM   27  C4  0ZG E   1      -4.825   3.649  23.885  1.00 21.71    -0.022 A 
HETATM   28  C   0ZG E   1      -6.207   4.189  23.505  1.00 22.51     0.031 C 
HETATM   29  C3  0ZG E   1      -4.616   2.286  23.791  1.00 21.05    -0.004 A 
HETATM   30  C2  0ZG E   1      -3.372   1.785  24.086  1.00 20.33     0.013 A 
ENDBRANCH  21  24
ENDBRANCH  20  21
ENDBRANCH   1  20
TORSDOF 7
