REMARK VINA RESULT:      -6.1      7.059     10.250
REMARK  7 active torsions:
REMARK  status: ('A' for Active; 'I' for Inactive)
REMARK    1  A    between atoms: S_1  and  C1_4 
REMARK    2  A    between atoms: S_1  and  N_17 
REMARK       I    between atoms: N1_11  and  C7_19 
REMARK    3  A    between atoms: N_17  and  CA_18 
REMARK    4  A    between atoms: CA_18  and  CB_21 
REMARK    5  A    between atoms: CA_18  and  C7_19 
REMARK    6  A    between atoms: CB_21  and  CG_22 
REMARK    7  A    between atoms: CE1_25  and  CF_28 
ROOT
HETATM    1  CA  0ZG E   1      -2.850   3.842  21.540  1.00 14.15     0.198 C 
ENDROOT
BRANCH   1   2
HETATM    2  CB  0ZG E   1      -3.294   2.637  20.691  1.00 12.21     0.061 C 
BRANCH   2   3
HETATM    3  CG  0ZG E   1      -2.386   1.403  20.732  1.00 10.71    -0.020 A 
HETATM    4  CD2 0ZG E   1      -2.811   0.237  21.341  1.00  9.73    -0.004 A 
HETATM    5  CE2 0ZG E   1      -1.987  -0.863  21.326  1.00  9.59    -0.000 A 
HETATM    6  CZ  0ZG E   1      -0.748  -0.841  20.717  1.00  9.52     0.003 A 
HETATM    7  CE1 0ZG E   1      -0.291   0.320  20.089  1.00  9.60     0.039 A 
HETATM    8  CD1 0ZG E   1      -1.143   1.407  20.130  1.00  9.96    -0.001 A 
BRANCH   7   9
HETATM    9  CF  0ZG E   1       0.955   0.363  19.440  1.00  9.03     0.205 C 
HETATM   10  NG2 0ZG E   1       1.042   0.814  18.174  1.00  9.25    -0.125 N 
HETATM   11  NG1 0ZG E   1       2.055  -0.030  20.107  1.00  8.04    -0.125 N 
ENDBRANCH   7   9
ENDBRANCH   2   3
ENDBRANCH   1   2
BRANCH   1  12
HETATM   12  C7  0ZG E   1      -3.563   5.133  21.082  1.00 13.65     0.257 C 
HETATM   13  N1  0ZG E   1      -2.975   5.964  20.202  1.00 13.52    -0.319 N 
HETATM   14  C21 0ZG E   1      -1.688   5.695  19.551  1.00 13.23     0.104 C 
HETATM   15  C61 0ZG E   1      -3.691   7.095  19.638  1.00 13.12     0.104 C 
HETATM   16  C31 0ZG E   1      -0.833   6.919  19.790  1.00 12.92     0.024 C 
HETATM   17  C41 0ZG E   1      -1.567   8.168  19.323  1.00 12.86     0.004 C 
HETATM   18  C51 0ZG E   1      -2.895   8.313  20.015  1.00 12.95     0.024 C 
HETATM   19  O   0ZG E   1      -4.709   5.358  21.506  1.00 12.79    -0.270 OA
ENDBRANCH   1  12
BRANCH   1  20
HETATM   20  N   0ZG E   1      -3.084   3.546  22.954  1.00 16.26    -0.177 NA
BRANCH  20  21
HETATM   21  S   0ZG E   1      -1.771   3.387  24.003  1.00 18.07     0.282 S 
HETATM   22  O2S 0ZG E   1      -0.558   4.035  23.347  1.00 18.65    -0.199 OA
HETATM   23  O1S 0ZG E   1      -1.588   1.900  24.266  1.00 18.26    -0.199 OA
BRANCH  21  24
HETATM   24  C1  0ZG E   1      -2.130   4.143  25.601  1.00 19.32     0.105 A 
HETATM   25  C6  0ZG E   1      -1.407   3.826  26.740  1.00 19.98     0.013 A 
HETATM   26  C5  0ZG E   1      -1.627   4.566  27.890  1.00 20.90    -0.004 A 
HETATM   27  C4  0ZG E   1      -2.569   5.596  27.875  1.00 21.71    -0.022 A 
HETATM   28  C   0ZG E   1      -2.802   6.459  29.118  1.00 22.51     0.031 C 
HETATM   29  C3  0ZG E   1      -3.313   5.876  26.745  1.00 21.05    -0.004 A 
HETATM   30  C2  0ZG E   1      -3.091   5.142  25.606  1.00 20.33     0.013 A 
ENDBRANCH  21  24
ENDBRANCH  20  21
ENDBRANCH   1  20
TORSDOF 7
