REMARK VINA RESULT:      -6.1     24.456     26.546
REMARK  7 active torsions:
REMARK  status: ('A' for Active; 'I' for Inactive)
REMARK    1  A    between atoms: S_1  and  C1_4 
REMARK    2  A    between atoms: S_1  and  N_17 
REMARK       I    between atoms: N1_11  and  C7_19 
REMARK    3  A    between atoms: N_17  and  CA_18 
REMARK    4  A    between atoms: CA_18  and  CB_21 
REMARK    5  A    between atoms: CA_18  and  C7_19 
REMARK    6  A    between atoms: CB_21  and  CG_22 
REMARK    7  A    between atoms: CE1_25  and  CF_28 
ROOT
HETATM    1  CA  0ZG E   1       7.478  21.042   7.873  1.00 14.15     0.198 C 
ENDROOT
BRANCH   1   2
HETATM    2  CB  0ZG E   1       7.524  19.506   7.957  1.00 12.21     0.061 C 
BRANCH   2   3
HETATM    3  CG  0ZG E   1       7.682  18.754   6.629  1.00 10.71    -0.020 A 
HETATM    4  CD2 0ZG E   1       8.279  17.509   6.593  1.00  9.73    -0.004 A 
HETATM    5  CE2 0ZG E   1       8.370  16.846   5.392  1.00  9.59    -0.000 A 
HETATM    6  CZ  0ZG E   1       7.878  17.385   4.220  1.00  9.52     0.003 A 
HETATM    7  CE1 0ZG E   1       7.265  18.640   4.224  1.00  9.60     0.039 A 
HETATM    8  CD1 0ZG E   1       7.197  19.279   5.447  1.00  9.96    -0.001 A 
BRANCH   7   9
HETATM    9  CF  0ZG E   1       6.734  19.201   3.050  1.00  9.03     0.205 C 
HETATM   10  NG2 0ZG E   1       6.885  18.570   1.870  1.00  9.25    -0.125 N 
HETATM   11  NG1 0ZG E   1       6.056  20.361   3.127  1.00  8.04    -0.125 N 
ENDBRANCH   7   9
ENDBRANCH   2   3
ENDBRANCH   1   2
BRANCH   1  12
HETATM   12  C7  0ZG E   1       6.385  21.613   8.801  1.00 13.65     0.257 C 
HETATM   13  N1  0ZG E   1       5.124  21.771   8.358  1.00 13.52    -0.319 N 
HETATM   14  C21 0ZG E   1       4.662  21.355   7.029  1.00 13.23     0.104 C 
HETATM   15  C61 0ZG E   1       4.050  22.154   9.258  1.00 13.12     0.104 C 
HETATM   16  C31 0ZG E   1       3.989  22.565   6.421  1.00 12.92     0.024 C 
HETATM   17  C41 0ZG E   1       2.917  23.095   7.362  1.00 12.86     0.004 C 
HETATM   18  C51 0ZG E   1       3.494  23.438   8.710  1.00 12.95     0.024 C 
HETATM   19  O   0ZG E   1       6.685  21.874   9.979  1.00 12.79    -0.270 OA
ENDBRANCH   1  12
BRANCH   1  20
HETATM   20  N   0ZG E   1       8.804  21.580   8.174  1.00 16.26    -0.177 NA
BRANCH  20  21
HETATM   21  S   0ZG E   1       9.870  21.933   6.914  1.00 18.07     0.282 S 
HETATM   22  O2S 0ZG E   1      10.840  23.003   7.399  1.00 18.65    -0.199 OA
HETATM   23  O1S 0ZG E   1       9.028  22.381   5.730  1.00 18.26    -0.199 OA
BRANCH  21  24
HETATM   24  C1  0ZG E   1      10.748  20.452   6.379  1.00 19.32     0.105 A 
HETATM   25  C6  0ZG E   1      11.274  19.544   7.285  1.00 19.98     0.013 A 
HETATM   26  C5  0ZG E   1      11.785  18.350   6.804  1.00 20.90    -0.004 A 
HETATM   27  C4  0ZG E   1      11.768  18.098   5.431  1.00 21.71    -0.022 A 
HETATM   28  C   0ZG E   1      12.286  16.770   4.874  1.00 22.51     0.031 C 
HETATM   29  C3  0ZG E   1      11.279  19.028   4.534  1.00 21.05    -0.004 A 
HETATM   30  C2  0ZG E   1      10.770  20.210   5.014  1.00 20.33     0.013 A 
ENDBRANCH  21  24
ENDBRANCH  20  21
ENDBRANCH   1  20
TORSDOF 7
