REMARK VINA RESULT:      -6.1     10.062     12.831
REMARK  7 active torsions:
REMARK  status: ('A' for Active; 'I' for Inactive)
REMARK    1  A    between atoms: S_1  and  C1_4 
REMARK    2  A    between atoms: S_1  and  N_17 
REMARK       I    between atoms: N1_11  and  C7_19 
REMARK    3  A    between atoms: N_17  and  CA_18 
REMARK    4  A    between atoms: CA_18  and  CB_21 
REMARK    5  A    between atoms: CA_18  and  C7_19 
REMARK    6  A    between atoms: CB_21  and  CG_22 
REMARK    7  A    between atoms: CE1_25  and  CF_28 
ROOT
HETATM    1  CA  0ZG E   1      -0.123   1.382  22.023  1.00 14.15     0.198 C 
ENDROOT
BRANCH   1   2
HETATM    2  CB  0ZG E   1       0.606   0.573  23.111  1.00 12.21     0.061 C 
BRANCH   2   3
HETATM    3  CG  0ZG E   1       0.865  -0.907  22.801  1.00 10.71    -0.020 A 
HETATM    4  CD2 0ZG E   1      -0.124  -1.691  22.240  1.00  9.73    -0.004 A 
HETATM    5  CE2 0ZG E   1       0.153  -3.003  21.939  1.00  9.59    -0.000 A 
HETATM    6  CZ  0ZG E   1       1.393  -3.561  22.178  1.00  9.52     0.003 A 
HETATM    7  CE1 0ZG E   1       2.416  -2.795  22.741  1.00  9.60     0.039 A 
HETATM    8  CD1 0ZG E   1       2.099  -1.482  23.035  1.00  9.96    -0.001 A 
BRANCH   7   9
HETATM    9  CF  0ZG E   1       3.694  -3.330  22.971  1.00  9.03     0.205 C 
HETATM   10  NG2 0ZG E   1       4.284  -3.179  24.173  1.00  9.25    -0.125 N 
HETATM   11  NG1 0ZG E   1       4.307  -4.012  21.986  1.00  8.04    -0.125 N 
ENDBRANCH   7   9
ENDBRANCH   2   3
ENDBRANCH   1   2
BRANCH   1  12
HETATM   12  C7  0ZG E   1      -0.525   2.776  22.549  1.00 13.65     0.257 C 
HETATM   13  N1  0ZG E   1      -1.781   3.233  22.387  1.00 13.52    -0.319 N 
HETATM   14  C21 0ZG E   1      -2.870   2.449  21.795  1.00 13.23     0.104 C 
HETATM   15  C61 0ZG E   1      -2.221   4.468  23.012  1.00 13.12     0.104 C 
HETATM   16  C31 0ZG E   1      -3.459   3.310  20.700  1.00 12.92     0.024 C 
HETATM   17  C41 0ZG E   1      -3.846   4.672  21.257  1.00 12.86     0.004 C 
HETATM   18  C51 0ZG E   1      -2.666   5.361  21.888  1.00 12.95     0.024 C 
HETATM   19  O   0ZG E   1       0.322   3.443  23.168  1.00 12.79    -0.270 OA
ENDBRANCH   1  12
BRANCH   1  20
HETATM   20  N   0ZG E   1       0.723   1.457  20.832  1.00 16.26    -0.177 NA
BRANCH  20  21
HETATM   21  S   0ZG E   1       0.229   0.702  19.405  1.00 18.07     0.282 S 
HETATM   22  O2S 0ZG E   1       0.267   1.734  18.285  1.00 18.65    -0.199 OA
HETATM   23  O1S 0ZG E   1      -1.163   0.142  19.657  1.00 18.26    -0.199 OA
BRANCH  21  24
HETATM   24  C1  0ZG E   1       1.283  -0.711  19.026  1.00 19.32     0.105 A 
HETATM   25  C6  0ZG E   1       2.610  -0.762  19.422  1.00 19.98     0.013 A 
HETATM   26  C5  0ZG E   1       3.308  -1.945  19.244  1.00 20.90    -0.004 A 
HETATM   27  C4  0ZG E   1       2.667  -3.042  18.666  1.00 21.71    -0.022 A 
HETATM   28  C   0ZG E   1       3.399  -4.375  18.495  1.00 22.51     0.031 C 
HETATM   29  C3  0ZG E   1       1.355  -2.966  18.237  1.00 21.05    -0.004 A 
HETATM   30  C2  0ZG E   1       0.665  -1.793  18.418  1.00 20.33     0.013 A 
ENDBRANCH  21  24
ENDBRANCH  20  21
ENDBRANCH   1  20
TORSDOF 7
