REMARK VINA RESULT:      -6.2      3.035      5.519
REMARK  7 active torsions:
REMARK  status: ('A' for Active; 'I' for Inactive)
REMARK    1  A    between atoms: S_1  and  C1_4 
REMARK    2  A    between atoms: S_1  and  N_17 
REMARK       I    between atoms: N1_11  and  C7_19 
REMARK    3  A    between atoms: N_17  and  CA_18 
REMARK    4  A    between atoms: CA_18  and  CB_21 
REMARK    5  A    between atoms: CA_18  and  C7_19 
REMARK    6  A    between atoms: CB_21  and  CG_22 
REMARK    7  A    between atoms: CE1_25  and  CF_28 
ROOT
HETATM    1  CA  0ZG E   1      -0.049  -4.262  15.889  1.00 14.15     0.198 C 
ENDROOT
BRANCH   1   2
HETATM    2  CB  0ZG E   1      -0.327  -5.768  15.732  1.00 12.21     0.061 C 
BRANCH   2   3
HETATM    3  CG  0ZG E   1      -1.341  -6.166  14.653  1.00 10.71    -0.020 A 
HETATM    4  CD2 0ZG E   1      -2.666  -5.790  14.761  1.00  9.73    -0.004 A 
HETATM    5  CE2 0ZG E   1      -3.541  -6.130  13.757  1.00  9.59    -0.000 A 
HETATM    6  CZ  0ZG E   1      -3.135  -6.834  12.640  1.00  9.52     0.003 A 
HETATM    7  CE1 0ZG E   1      -1.802  -7.225  12.499  1.00  9.60     0.039 A 
HETATM    8  CD1 0ZG E   1      -0.953  -6.871  13.530  1.00  9.96    -0.001 A 
BRANCH   7   9
HETATM    9  CF  0ZG E   1      -1.356  -7.919  11.362  1.00  9.03     0.205 C 
HETATM   10  NG2 0ZG E   1      -0.422  -8.883  11.481  1.00  9.25    -0.125 N 
HETATM   11  NG1 0ZG E   1      -1.889  -7.624  10.162  1.00  8.04    -0.125 N 
ENDBRANCH   7   9
ENDBRANCH   2   3
ENDBRANCH   1   2
BRANCH   1  12
HETATM   12  C7  0ZG E   1       1.024  -4.007  16.968  1.00 13.65     0.257 C 
HETATM   13  N1  0ZG E   1       0.918  -2.959  17.806  1.00 13.52    -0.319 N 
HETATM   14  C21 0ZG E   1      -0.226  -2.041  17.832  1.00 13.23     0.104 C 
HETATM   15  C61 0ZG E   1       1.827  -2.794  18.927  1.00 13.12     0.104 C 
HETATM   16  C31 0ZG E   1       0.353  -0.648  17.727  1.00 12.92     0.024 C 
HETATM   17  C41 0ZG E   1       1.402  -0.435  18.808  1.00 12.86     0.004 C 
HETATM   18  C51 0ZG E   1       2.497  -1.464  18.719  1.00 12.95     0.024 C 
HETATM   19  O   0ZG E   1       1.958  -4.820  17.077  1.00 12.79    -0.270 OA
ENDBRANCH   1  12
BRANCH   1  20
HETATM   20  N   0ZG E   1       0.322  -3.704  14.588  1.00 16.26    -0.177 NA
BRANCH  20  21
HETATM   21  S   0ZG E   1      -0.458  -2.320  14.018  1.00 18.07     0.282 S 
HETATM   22  O2S 0ZG E   1       0.457  -1.126  14.260  1.00 18.65    -0.199 OA
HETATM   23  O1S 0ZG E   1      -1.784  -2.218  14.757  1.00 18.26    -0.199 OA
BRANCH  21  24
HETATM   24  C1  0ZG E   1      -0.866  -2.486  12.269  1.00 19.32     0.105 A 
HETATM   25  C6  0ZG E   1      -0.320  -1.650  11.307  1.00 19.98     0.013 A 
HETATM   26  C5  0ZG E   1      -0.546  -1.942   9.973  1.00 20.90    -0.004 A 
HETATM   27  C4  0ZG E   1      -1.319  -3.053   9.633  1.00 21.71    -0.022 A 
HETATM   28  C   0ZG E   1      -1.551  -3.425   8.166  1.00 22.51     0.031 C 
HETATM   29  C3  0ZG E   1      -1.893  -3.855  10.602  1.00 21.05    -0.004 A 
HETATM   30  C2  0ZG E   1      -1.664  -3.565  11.924  1.00 20.33     0.013 A 
ENDBRANCH  21  24
ENDBRANCH  20  21
ENDBRANCH   1  20
TORSDOF 7
