MODEL 1
REMARK VINA RESULT:      -6.3      0.000      0.000
REMARK  7 active torsions:
REMARK  status: ('A' for Active; 'I' for Inactive)
REMARK    1  A    between atoms: S_1  and  C1_4 
REMARK    2  A    between atoms: S_1  and  N_17 
REMARK       I    between atoms: N1_11  and  C7_19 
REMARK    3  A    between atoms: N_17  and  CA_18 
REMARK    4  A    between atoms: CA_18  and  CB_21 
REMARK    5  A    between atoms: CA_18  and  C7_19 
REMARK    6  A    between atoms: CB_21  and  CG_22 
REMARK    7  A    between atoms: CE1_25  and  CF_28 
ROOT
HETATM    1  CA  0ZG E   1      -0.615  -2.738  11.450  1.00 14.15     0.198 C 
ENDROOT
BRANCH   1   2
HETATM    2  CB  0ZG E   1      -0.379  -1.814  10.241  1.00 12.21     0.061 C 
BRANCH   2   3
HETATM    3  CG  0ZG E   1      -0.347  -2.488   8.864  1.00 10.71    -0.020 A 
HETATM    4  CD2 0ZG E   1      -1.180  -2.054   7.850  1.00  9.73    -0.004 A 
HETATM    5  CE2 0ZG E   1      -1.098  -2.655   6.616  1.00  9.59    -0.000 A 
HETATM    6  CZ  0ZG E   1      -0.207  -3.677   6.358  1.00  9.52     0.003 A 
HETATM    7  CE1 0ZG E   1       0.651  -4.135   7.360  1.00  9.60     0.039 A 
HETATM    8  CD1 0ZG E   1       0.537  -3.512   8.588  1.00  9.96    -0.001 A 
BRANCH   7   9
HETATM    9  CF  0ZG E   1       1.585  -5.156   7.117  1.00  9.03     0.205 C 
HETATM   10  NG2 0ZG E   1       1.230  -6.448   7.266  1.00  9.25    -0.125 N 
HETATM   11  NG1 0ZG E   1       2.826  -4.827   6.714  1.00  8.04    -0.125 N 
ENDBRANCH   7   9
ENDBRANCH   2   3
ENDBRANCH   1   2
BRANCH   1  12
HETATM   12  C7  0ZG E   1      -0.396  -1.979  12.776  1.00 13.65     0.257 C 
HETATM   13  N1  0ZG E   1      -0.196  -2.651  13.925  1.00 13.52    -0.319 N 
HETATM   14  C21 0ZG E   1      -0.084  -4.111  14.014  1.00 13.23     0.104 C 
HETATM   15  C61 0ZG E   1       0.170  -1.960  15.149  1.00 13.12     0.104 C 
HETATM   16  C31 0ZG E   1      -1.072  -4.543  15.074  1.00 12.92     0.024 C 
HETATM   17  C41 0ZG E   1      -0.822  -3.776  16.364  1.00 12.86     0.004 C 
HETATM   18  C51 0ZG E   1      -0.907  -2.290  16.144  1.00 12.95     0.024 C 
HETATM   19  O   0ZG E   1      -0.360  -0.737  12.748  1.00 12.79    -0.270 OA
ENDBRANCH   1  12
BRANCH   1  20
HETATM   20  N   0ZG E   1      -1.953  -3.322  11.354  1.00 16.26    -0.177 NA
BRANCH  20  21
HETATM   21  S   0ZG E   1      -2.125  -4.975  11.054  1.00 18.07     0.282 S 
HETATM   22  O2S 0ZG E   1      -3.065  -5.552  12.105  1.00 18.65    -0.199 OA
HETATM   23  O1S 0ZG E   1      -0.731  -5.583  11.099  1.00 18.26    -0.199 OA
BRANCH  21  24
HETATM   24  C1  0ZG E   1      -2.751  -5.265   9.389  1.00 19.32     0.105 A 
HETATM   25  C6  0ZG E   1      -3.737  -4.468   8.828  1.00 19.98     0.013 A 
HETATM   26  C5  0ZG E   1      -4.048  -4.645   7.490  1.00 20.90    -0.004 A 
HETATM   27  C4  0ZG E   1      -3.374  -5.617   6.750  1.00 21.71    -0.022 A 
HETATM   28  C   0ZG E   1      -3.666  -5.806   5.259  1.00 22.51     0.031 C 
HETATM   29  C3  0ZG E   1      -2.422  -6.433   7.330  1.00 21.05    -0.004 A 
HETATM   30  C2  0ZG E   1      -2.114  -6.254   8.656  1.00 20.33     0.013 A 
ENDBRANCH  21  24
ENDBRANCH  20  21
ENDBRANCH   1  20
TORSDOF 7
ENDMDL
MODEL 2
REMARK VINA RESULT:      -6.2     11.905     14.521
REMARK  7 active torsions:
REMARK  status: ('A' for Active; 'I' for Inactive)
REMARK    1  A    between atoms: S_1  and  C1_4 
REMARK    2  A    between atoms: S_1  and  N_17 
REMARK       I    between atoms: N1_11  and  C7_19 
REMARK    3  A    between atoms: N_17  and  CA_18 
REMARK    4  A    between atoms: CA_18  and  CB_21 
REMARK    5  A    between atoms: CA_18  and  C7_19 
REMARK    6  A    between atoms: CB_21  and  CG_22 
REMARK    7  A    between atoms: CE1_25  and  CF_28 
ROOT
HETATM    1  CA  0ZG E   1      -3.087   3.940  21.654  1.00 14.15     0.198 C 
ENDROOT
BRANCH   1   2
HETATM    2  CB  0ZG E   1      -3.755   2.692  21.048  1.00 12.21     0.061 C 
BRANCH   2   3
HETATM    3  CG  0ZG E   1      -2.896   1.423  20.984  1.00 10.71    -0.020 A 
HETATM    4  CD2 0ZG E   1      -3.397   0.212  21.426  1.00  9.73    -0.004 A 
HETATM    5  CE2 0ZG E   1      -2.615  -0.913  21.318  1.00  9.59    -0.000 A 
HETATM    6  CZ  0ZG E   1      -1.345  -0.872  20.778  1.00  9.52     0.003 A 
HETATM    7  CE1 0ZG E   1      -0.812   0.334  20.318  1.00  9.60     0.039 A 
HETATM    8  CD1 0ZG E   1      -1.624   1.444  20.448  1.00  9.96    -0.001 A 
BRANCH   7   9
HETATM    9  CF  0ZG E   1       0.467   0.399  19.740  1.00  9.03     0.205 C 
HETATM   10  NG2 0ZG E   1       1.539  -0.055  20.418  1.00  9.25    -0.125 N 
HETATM   11  NG1 0ZG E   1       0.601   0.899  18.499  1.00  8.04    -0.125 N 
ENDBRANCH   7   9
ENDBRANCH   2   3
ENDBRANCH   1   2
BRANCH   1  12
HETATM   12  C7  0ZG E   1      -3.737   5.231  21.113  1.00 13.65     0.257 C 
HETATM   13  N1  0ZG E   1      -3.089   6.002  20.219  1.00 13.52    -0.319 N 
HETATM   14  C21 0ZG E   1      -1.790   5.661  19.630  1.00 13.23     0.104 C 
HETATM   15  C61 0ZG E   1      -3.745   7.129  19.580  1.00 13.12     0.104 C 
HETATM   16  C31 0ZG E   1      -0.903   6.866  19.847  1.00 12.92     0.024 C 
HETATM   17  C41 0ZG E   1      -1.575   8.116  19.298  1.00 12.86     0.004 C 
HETATM   18  C51 0ZG E   1      -2.922   8.336  19.933  1.00 12.95     0.024 C 
HETATM   19  O   0ZG E   1      -4.890   5.513  21.483  1.00 12.79    -0.270 OA
ENDBRANCH   1  12
BRANCH   1  20
HETATM   20  N   0ZG E   1      -3.143   3.854  23.113  1.00 16.26    -0.177 NA
BRANCH  20  21
HETATM   21  S   0ZG E   1      -1.710   3.804  24.004  1.00 18.07     0.282 S 
HETATM   22  O2S 0ZG E   1      -1.958   4.493  25.340  1.00 18.65    -0.199 OA
HETATM   23  O1S 0ZG E   1      -0.640   4.488  23.167  1.00 18.26    -0.199 OA
BRANCH  21  24
HETATM   24  C1  0ZG E   1      -1.158   2.103  24.240  1.00 19.32     0.105 A 
HETATM   25  C6  0ZG E   1      -2.003   1.120  24.731  1.00 19.98     0.013 A 
HETATM   26  C5  0ZG E   1      -1.562  -0.193  24.727  1.00 20.90    -0.004 A 
HETATM   27  C4  0ZG E   1      -0.288  -0.489  24.243  1.00 21.71    -0.022 A 
HETATM   28  C   0ZG E   1       0.210  -1.935  24.186  1.00 22.51     0.031 C 
HETATM   29  C3  0ZG E   1       0.562   0.505  23.794  1.00 21.05    -0.004 A 
HETATM   30  C2  0ZG E   1       0.121   1.805  23.796  1.00 20.33     0.013 A 
ENDBRANCH  21  24
ENDBRANCH  20  21
ENDBRANCH   1  20
TORSDOF 7
ENDMDL
MODEL 3
REMARK VINA RESULT:      -6.2     11.271     14.918
REMARK  7 active torsions:
REMARK  status: ('A' for Active; 'I' for Inactive)
REMARK    1  A    between atoms: S_1  and  C1_4 
REMARK    2  A    between atoms: S_1  and  N_17 
REMARK       I    between atoms: N1_11  and  C7_19 
REMARK    3  A    between atoms: N_17  and  CA_18 
REMARK    4  A    between atoms: CA_18  and  CB_21 
REMARK    5  A    between atoms: CA_18  and  C7_19 
REMARK    6  A    between atoms: CB_21  and  CG_22 
REMARK    7  A    between atoms: CE1_25  and  CF_28 
ROOT
HETATM    1  CA  0ZG E   1      -0.702   2.254  20.967  1.00 14.15     0.198 C 
ENDROOT
BRANCH   1   2
HETATM    2  CB  0ZG E   1      -1.203   3.167  19.835  1.00 12.21     0.061 C 
BRANCH   2   3
HETATM    3  CG  0ZG E   1      -2.257   4.214  20.218  1.00 10.71    -0.020 A 
HETATM    4  CD2 0ZG E   1      -3.380   3.849  20.937  1.00  9.73    -0.004 A 
HETATM    5  CE2 0ZG E   1      -4.286   4.819  21.297  1.00  9.59    -0.000 A 
HETATM    6  CZ  0ZG E   1      -4.105   6.147  20.967  1.00  9.52     0.003 A 
HETATM    7  CE1 0ZG E   1      -2.979   6.548  20.246  1.00  9.60     0.039 A 
HETATM    8  CD1 0ZG E   1      -2.094   5.547  19.895  1.00  9.96    -0.001 A 
BRANCH   7   9
HETATM    9  CF  0ZG E   1      -2.758   7.897  19.918  1.00  9.03     0.205 C 
HETATM   10  NG2 0ZG E   1      -3.782   8.773  19.934  1.00  9.25    -0.125 N 
HETATM   11  NG1 0ZG E   1      -1.513   8.302  19.612  1.00  8.04    -0.125 N 
ENDBRANCH   7   9
ENDBRANCH   2   3
ENDBRANCH   1   2
BRANCH   1  12
HETATM   12  C7  0ZG E   1       0.077   1.048  20.400  1.00 13.65     0.257 C 
HETATM   13  N1  0ZG E   1      -0.435  -0.195  20.475  1.00 13.52    -0.319 N 
HETATM   14  C21 0ZG E   1      -1.767  -0.504  21.005  1.00 13.23     0.104 C 
HETATM   15  C61 0ZG E   1       0.204  -1.316  19.808  1.00 13.12     0.104 C 
HETATM   16  C31 0ZG E   1      -1.564  -1.579  22.049  1.00 12.92     0.024 C 
HETATM   17  C41 0ZG E   1      -0.798  -2.749  21.452  1.00 12.86     0.004 C 
HETATM   18  C51 0ZG E   1       0.527  -2.307  20.891  1.00 12.95     0.024 C 
HETATM   19  O   0ZG E   1       1.161   1.259  19.829  1.00 12.79    -0.270 OA
ENDBRANCH   1  12
BRANCH   1  20
HETATM   20  N   0ZG E   1       0.096   3.044  21.904  1.00 16.26    -0.177 NA
BRANCH  20  21
HETATM   21  S   0ZG E   1      -0.029   2.754  23.563  1.00 18.07     0.282 S 
HETATM   22  O2S 0ZG E   1       1.061   3.550  24.267  1.00 18.65    -0.199 OA
HETATM   23  O1S 0ZG E   1       0.102   1.252  23.763  1.00 18.26    -0.199 OA
BRANCH  21  24
HETATM   24  C1  0ZG E   1      -1.665   3.205  24.173  1.00 19.32     0.105 A 
HETATM   25  C6  0ZG E   1      -1.980   4.507  24.529  1.00 19.98     0.013 A 
HETATM   26  C5  0ZG E   1      -3.298   4.810  24.828  1.00 20.90    -0.004 A 
HETATM   27  C4  0ZG E   1      -4.264   3.805  24.775  1.00 21.71    -0.022 A 
HETATM   28  C   0ZG E   1      -5.735   4.119  25.058  1.00 22.51     0.031 C 
HETATM   29  C3  0ZG E   1      -3.930   2.501  24.459  1.00 21.05    -0.004 A 
HETATM   30  C2  0ZG E   1      -2.623   2.205  24.160  1.00 20.33     0.013 A 
ENDBRANCH  21  24
ENDBRANCH  20  21
ENDBRANCH   1  20
TORSDOF 7
ENDMDL
MODEL 4
REMARK VINA RESULT:      -6.2      3.035      5.519
REMARK  7 active torsions:
REMARK  status: ('A' for Active; 'I' for Inactive)
REMARK    1  A    between atoms: S_1  and  C1_4 
REMARK    2  A    between atoms: S_1  and  N_17 
REMARK       I    between atoms: N1_11  and  C7_19 
REMARK    3  A    between atoms: N_17  and  CA_18 
REMARK    4  A    between atoms: CA_18  and  CB_21 
REMARK    5  A    between atoms: CA_18  and  C7_19 
REMARK    6  A    between atoms: CB_21  and  CG_22 
REMARK    7  A    between atoms: CE1_25  and  CF_28 
ROOT
HETATM    1  CA  0ZG E   1      -0.049  -4.262  15.889  1.00 14.15     0.198 C 
ENDROOT
BRANCH   1   2
HETATM    2  CB  0ZG E   1      -0.327  -5.768  15.732  1.00 12.21     0.061 C 
BRANCH   2   3
HETATM    3  CG  0ZG E   1      -1.341  -6.166  14.653  1.00 10.71    -0.020 A 
HETATM    4  CD2 0ZG E   1      -2.666  -5.790  14.761  1.00  9.73    -0.004 A 
HETATM    5  CE2 0ZG E   1      -3.541  -6.130  13.757  1.00  9.59    -0.000 A 
HETATM    6  CZ  0ZG E   1      -3.135  -6.834  12.640  1.00  9.52     0.003 A 
HETATM    7  CE1 0ZG E   1      -1.802  -7.225  12.499  1.00  9.60     0.039 A 
HETATM    8  CD1 0ZG E   1      -0.953  -6.871  13.530  1.00  9.96    -0.001 A 
BRANCH   7   9
HETATM    9  CF  0ZG E   1      -1.356  -7.919  11.362  1.00  9.03     0.205 C 
HETATM   10  NG2 0ZG E   1      -0.422  -8.883  11.481  1.00  9.25    -0.125 N 
HETATM   11  NG1 0ZG E   1      -1.889  -7.624  10.162  1.00  8.04    -0.125 N 
ENDBRANCH   7   9
ENDBRANCH   2   3
ENDBRANCH   1   2
BRANCH   1  12
HETATM   12  C7  0ZG E   1       1.024  -4.007  16.968  1.00 13.65     0.257 C 
HETATM   13  N1  0ZG E   1       0.918  -2.959  17.806  1.00 13.52    -0.319 N 
HETATM   14  C21 0ZG E   1      -0.226  -2.041  17.832  1.00 13.23     0.104 C 
HETATM   15  C61 0ZG E   1       1.827  -2.794  18.927  1.00 13.12     0.104 C 
HETATM   16  C31 0ZG E   1       0.353  -0.648  17.727  1.00 12.92     0.024 C 
HETATM   17  C41 0ZG E   1       1.402  -0.435  18.808  1.00 12.86     0.004 C 
HETATM   18  C51 0ZG E   1       2.497  -1.464  18.719  1.00 12.95     0.024 C 
HETATM   19  O   0ZG E   1       1.958  -4.820  17.077  1.00 12.79    -0.270 OA
ENDBRANCH   1  12
BRANCH   1  20
HETATM   20  N   0ZG E   1       0.322  -3.704  14.588  1.00 16.26    -0.177 NA
BRANCH  20  21
HETATM   21  S   0ZG E   1      -0.458  -2.320  14.018  1.00 18.07     0.282 S 
HETATM   22  O2S 0ZG E   1       0.457  -1.126  14.260  1.00 18.65    -0.199 OA
HETATM   23  O1S 0ZG E   1      -1.784  -2.218  14.757  1.00 18.26    -0.199 OA
BRANCH  21  24
HETATM   24  C1  0ZG E   1      -0.866  -2.486  12.269  1.00 19.32     0.105 A 
HETATM   25  C6  0ZG E   1      -0.320  -1.650  11.307  1.00 19.98     0.013 A 
HETATM   26  C5  0ZG E   1      -0.546  -1.942   9.973  1.00 20.90    -0.004 A 
HETATM   27  C4  0ZG E   1      -1.319  -3.053   9.633  1.00 21.71    -0.022 A 
HETATM   28  C   0ZG E   1      -1.551  -3.425   8.166  1.00 22.51     0.031 C 
HETATM   29  C3  0ZG E   1      -1.893  -3.855  10.602  1.00 21.05    -0.004 A 
HETATM   30  C2  0ZG E   1      -1.664  -3.565  11.924  1.00 20.33     0.013 A 
ENDBRANCH  21  24
ENDBRANCH  20  21
ENDBRANCH   1  20
TORSDOF 7
ENDMDL
MODEL 5
REMARK VINA RESULT:      -6.1      3.419      6.136
REMARK  7 active torsions:
REMARK  status: ('A' for Active; 'I' for Inactive)
REMARK    1  A    between atoms: S_1  and  C1_4 
REMARK    2  A    between atoms: S_1  and  N_17 
REMARK       I    between atoms: N1_11  and  C7_19 
REMARK    3  A    between atoms: N_17  and  CA_18 
REMARK    4  A    between atoms: CA_18  and  CB_21 
REMARK    5  A    between atoms: CA_18  and  C7_19 
REMARK    6  A    between atoms: CB_21  and  CG_22 
REMARK    7  A    between atoms: CE1_25  and  CF_28 
ROOT
HETATM    1  CA  0ZG E   1      -0.082  -4.449  15.919  1.00 14.15     0.198 C 
ENDROOT
BRANCH   1   2
HETATM    2  CB  0ZG E   1      -0.509  -5.914  15.718  1.00 12.21     0.061 C 
BRANCH   2   3
HETATM    3  CG  0ZG E   1      -1.441  -6.196  14.533  1.00 10.71    -0.020 A 
HETATM    4  CD2 0ZG E   1      -1.006  -6.955  13.462  1.00  9.73    -0.004 A 
HETATM    5  CE2 0ZG E   1      -1.879  -7.221  12.434  1.00  9.59    -0.000 A 
HETATM    6  CZ  0ZG E   1      -3.179  -6.756  12.440  1.00  9.52     0.003 A 
HETATM    7  CE1 0ZG E   1      -3.651  -5.991  13.509  1.00  9.60     0.039 A 
HETATM    8  CD1 0ZG E   1      -2.744  -5.739  14.521  1.00  9.96    -0.001 A 
BRANCH   7   9
HETATM    9  CF  0ZG E   1      -4.976  -5.527  13.552  1.00  9.03     0.205 C 
HETATM   10  NG2 0ZG E   1      -5.869  -5.943  12.632  1.00  9.25    -0.125 N 
HETATM   11  NG1 0ZG E   1      -5.344  -4.684  14.534  1.00  8.04    -0.125 N 
ENDBRANCH   7   9
ENDBRANCH   2   3
ENDBRANCH   1   2
BRANCH   1  12
HETATM   12  C7  0ZG E   1       1.079  -4.347  16.931  1.00 13.65     0.257 C 
HETATM   13  N1  0ZG E   1       1.119  -3.344  17.828  1.00 13.52    -0.319 N 
HETATM   14  C21 0ZG E   1       0.063  -2.338  17.983  1.00 13.23     0.104 C 
HETATM   15  C61 0ZG E   1       2.112  -3.319  18.888  1.00 13.12     0.104 C 
HETATM   16  C31 0ZG E   1       0.751  -0.993  17.910  1.00 12.92     0.024 C 
HETATM   17  C41 0ZG E   1       1.885  -0.930  18.922  1.00 12.86     0.004 C 
HETATM   18  C51 0ZG E   1       2.878  -2.039  18.703  1.00 12.95     0.024 C 
HETATM   19  O   0ZG E   1       1.945  -5.238  16.931  1.00 12.79    -0.270 OA
ENDBRANCH   1  12
BRANCH   1  20
HETATM   20  N   0ZG E   1       0.254  -3.865  14.621  1.00 16.26    -0.177 NA
BRANCH  20  21
HETATM   21  S   0ZG E   1      -0.487  -2.429  14.132  1.00 18.07     0.282 S 
HETATM   22  O2S 0ZG E   1       0.431  -1.271  14.503  1.00 18.65    -0.199 OA
HETATM   23  O1S 0ZG E   1      -1.839  -2.367  14.826  1.00 18.26    -0.199 OA
BRANCH  21  24
HETATM   24  C1  0ZG E   1      -0.827  -2.451  12.362  1.00 19.32     0.105 A 
HETATM   25  C6  0ZG E   1      -0.255  -1.532  11.495  1.00 19.98     0.013 A 
HETATM   26  C5  0ZG E   1      -0.428  -1.713  10.132  1.00 20.90    -0.004 A 
HETATM   27  C4  0ZG E   1      -1.174  -2.798   9.672  1.00 21.71    -0.022 A 
HETATM   28  C   0ZG E   1      -1.346  -3.048   8.171  1.00 22.51     0.031 C 
HETATM   29  C3  0ZG E   1      -1.774  -3.685  10.547  1.00 21.05    -0.004 A 
HETATM   30  C2  0ZG E   1      -1.598  -3.504  11.897  1.00 20.33     0.013 A 
ENDBRANCH  21  24
ENDBRANCH  20  21
ENDBRANCH   1  20
TORSDOF 7
ENDMDL
MODEL 6
REMARK VINA RESULT:      -6.1     10.527     14.681
REMARK  7 active torsions:
REMARK  status: ('A' for Active; 'I' for Inactive)
REMARK    1  A    between atoms: S_1  and  C1_4 
REMARK    2  A    between atoms: S_1  and  N_17 
REMARK       I    between atoms: N1_11  and  C7_19 
REMARK    3  A    between atoms: N_17  and  CA_18 
REMARK    4  A    between atoms: CA_18  and  CB_21 
REMARK    5  A    between atoms: CA_18  and  C7_19 
REMARK    6  A    between atoms: CB_21  and  CG_22 
REMARK    7  A    between atoms: CE1_25  and  CF_28 
ROOT
HETATM    1  CA  0ZG E   1      -0.920   2.392  20.622  1.00 14.15     0.198 C 
ENDROOT
BRANCH   1   2
HETATM    2  CB  0ZG E   1      -1.527   3.591  19.872  1.00 12.21     0.061 C 
BRANCH   2   3
HETATM    3  CG  0ZG E   1      -2.831   4.162  20.442  1.00 10.71    -0.020 A 
HETATM    4  CD2 0ZG E   1      -2.935   5.506  20.747  1.00  9.73    -0.004 A 
HETATM    5  CE2 0ZG E   1      -4.131   5.993  21.220  1.00  9.59    -0.000 A 
HETATM    6  CZ  0ZG E   1      -5.233   5.181  21.395  1.00  9.52     0.003 A 
HETATM    7  CE1 0ZG E   1      -5.162   3.819  21.092  1.00  9.60     0.039 A 
HETATM    8  CD1 0ZG E   1      -3.943   3.365  20.625  1.00  9.96    -0.001 A 
BRANCH   7   9
HETATM    9  CF  0ZG E   1      -6.275   2.975  21.237  1.00  9.03     0.205 C 
HETATM   10  NG2 0ZG E   1      -6.285   1.762  20.650  1.00  9.25    -0.125 N 
HETATM   11  NG1 0ZG E   1      -7.316   3.385  21.984  1.00  8.04    -0.125 N 
ENDBRANCH   7   9
ENDBRANCH   2   3
ENDBRANCH   1   2
BRANCH   1  12
HETATM   12  C7  0ZG E   1      -0.383   1.336  19.633  1.00 13.65     0.257 C 
HETATM   13  N1  0ZG E   1      -0.613   0.025  19.837  1.00 13.52    -0.319 N 
HETATM   14  C21 0ZG E   1      -1.437  -0.502  20.929  1.00 13.23     0.104 C 
HETATM   15  C61 0ZG E   1      -0.257  -0.968  18.839  1.00 13.12     0.104 C 
HETATM   16  C31 0ZG E   1      -0.590  -1.543  21.627  1.00 12.92     0.024 C 
HETATM   17  C41 0ZG E   1      -0.084  -2.566  20.621  1.00 12.86     0.004 C 
HETATM   18  C51 0ZG E   1       0.700  -1.907  19.518  1.00 12.95     0.024 C 
HETATM   19  O   0ZG E   1       0.222   1.728  18.620  1.00 12.79    -0.270 OA
ENDBRANCH   1  12
BRANCH   1  20
HETATM   20  N   0ZG E   1       0.112   2.872  21.542  1.00 16.26    -0.177 NA
BRANCH  20  21
HETATM   21  S   0ZG E   1      -0.108   2.704  23.207  1.00 18.07     0.282 S 
HETATM   22  O2S 0ZG E   1       0.868   3.639  23.911  1.00 18.65    -0.199 OA
HETATM   23  O1S 0ZG E   1       0.122   1.238  23.541  1.00 18.26    -0.199 OA
BRANCH  21  24
HETATM   24  C1  0ZG E   1      -1.811   3.069  23.672  1.00 19.32     0.105 A 
HETATM   25  C6  0ZG E   1      -2.777   2.078  23.750  1.00 19.98     0.013 A 
HETATM   26  C5  0ZG E   1      -4.017   2.404  24.274  1.00 20.90    -0.004 A 
HETATM   27  C4  0ZG E   1      -4.263   3.711  24.697  1.00 21.71    -0.022 A 
HETATM   28  C   0ZG E   1      -5.609   4.091  25.320  1.00 22.51     0.031 C 
HETATM   29  C3  0ZG E   1      -3.305   4.700  24.576  1.00 21.05    -0.004 A 
HETATM   30  C2  0ZG E   1      -2.076   4.373  24.059  1.00 20.33     0.013 A 
ENDBRANCH  21  24
ENDBRANCH  20  21
ENDBRANCH   1  20
TORSDOF 7
ENDMDL
MODEL 7
REMARK VINA RESULT:      -6.1     24.456     26.546
REMARK  7 active torsions:
REMARK  status: ('A' for Active; 'I' for Inactive)
REMARK    1  A    between atoms: S_1  and  C1_4 
REMARK    2  A    between atoms: S_1  and  N_17 
REMARK       I    between atoms: N1_11  and  C7_19 
REMARK    3  A    between atoms: N_17  and  CA_18 
REMARK    4  A    between atoms: CA_18  and  CB_21 
REMARK    5  A    between atoms: CA_18  and  C7_19 
REMARK    6  A    between atoms: CB_21  and  CG_22 
REMARK    7  A    between atoms: CE1_25  and  CF_28 
ROOT
HETATM    1  CA  0ZG E   1       7.478  21.042   7.873  1.00 14.15     0.198 C 
ENDROOT
BRANCH   1   2
HETATM    2  CB  0ZG E   1       7.524  19.506   7.957  1.00 12.21     0.061 C 
BRANCH   2   3
HETATM    3  CG  0ZG E   1       7.682  18.754   6.629  1.00 10.71    -0.020 A 
HETATM    4  CD2 0ZG E   1       8.279  17.509   6.593  1.00  9.73    -0.004 A 
HETATM    5  CE2 0ZG E   1       8.370  16.846   5.392  1.00  9.59    -0.000 A 
HETATM    6  CZ  0ZG E   1       7.878  17.385   4.220  1.00  9.52     0.003 A 
HETATM    7  CE1 0ZG E   1       7.265  18.640   4.224  1.00  9.60     0.039 A 
HETATM    8  CD1 0ZG E   1       7.197  19.279   5.447  1.00  9.96    -0.001 A 
BRANCH   7   9
HETATM    9  CF  0ZG E   1       6.734  19.201   3.050  1.00  9.03     0.205 C 
HETATM   10  NG2 0ZG E   1       6.885  18.570   1.870  1.00  9.25    -0.125 N 
HETATM   11  NG1 0ZG E   1       6.056  20.361   3.127  1.00  8.04    -0.125 N 
ENDBRANCH   7   9
ENDBRANCH   2   3
ENDBRANCH   1   2
BRANCH   1  12
HETATM   12  C7  0ZG E   1       6.385  21.613   8.801  1.00 13.65     0.257 C 
HETATM   13  N1  0ZG E   1       5.124  21.771   8.358  1.00 13.52    -0.319 N 
HETATM   14  C21 0ZG E   1       4.662  21.355   7.029  1.00 13.23     0.104 C 
HETATM   15  C61 0ZG E   1       4.050  22.154   9.258  1.00 13.12     0.104 C 
HETATM   16  C31 0ZG E   1       3.989  22.565   6.421  1.00 12.92     0.024 C 
HETATM   17  C41 0ZG E   1       2.917  23.095   7.362  1.00 12.86     0.004 C 
HETATM   18  C51 0ZG E   1       3.494  23.438   8.710  1.00 12.95     0.024 C 
HETATM   19  O   0ZG E   1       6.685  21.874   9.979  1.00 12.79    -0.270 OA
ENDBRANCH   1  12
BRANCH   1  20
HETATM   20  N   0ZG E   1       8.804  21.580   8.174  1.00 16.26    -0.177 NA
BRANCH  20  21
HETATM   21  S   0ZG E   1       9.870  21.933   6.914  1.00 18.07     0.282 S 
HETATM   22  O2S 0ZG E   1      10.840  23.003   7.399  1.00 18.65    -0.199 OA
HETATM   23  O1S 0ZG E   1       9.028  22.381   5.730  1.00 18.26    -0.199 OA
BRANCH  21  24
HETATM   24  C1  0ZG E   1      10.748  20.452   6.379  1.00 19.32     0.105 A 
HETATM   25  C6  0ZG E   1      11.274  19.544   7.285  1.00 19.98     0.013 A 
HETATM   26  C5  0ZG E   1      11.785  18.350   6.804  1.00 20.90    -0.004 A 
HETATM   27  C4  0ZG E   1      11.768  18.098   5.431  1.00 21.71    -0.022 A 
HETATM   28  C   0ZG E   1      12.286  16.770   4.874  1.00 22.51     0.031 C 
HETATM   29  C3  0ZG E   1      11.279  19.028   4.534  1.00 21.05    -0.004 A 
HETATM   30  C2  0ZG E   1      10.770  20.210   5.014  1.00 20.33     0.013 A 
ENDBRANCH  21  24
ENDBRANCH  20  21
ENDBRANCH   1  20
TORSDOF 7
ENDMDL
MODEL 8
REMARK VINA RESULT:      -6.1     10.062     12.831
REMARK  7 active torsions:
REMARK  status: ('A' for Active; 'I' for Inactive)
REMARK    1  A    between atoms: S_1  and  C1_4 
REMARK    2  A    between atoms: S_1  and  N_17 
REMARK       I    between atoms: N1_11  and  C7_19 
REMARK    3  A    between atoms: N_17  and  CA_18 
REMARK    4  A    between atoms: CA_18  and  CB_21 
REMARK    5  A    between atoms: CA_18  and  C7_19 
REMARK    6  A    between atoms: CB_21  and  CG_22 
REMARK    7  A    between atoms: CE1_25  and  CF_28 
ROOT
HETATM    1  CA  0ZG E   1      -0.123   1.382  22.023  1.00 14.15     0.198 C 
ENDROOT
BRANCH   1   2
HETATM    2  CB  0ZG E   1       0.606   0.573  23.111  1.00 12.21     0.061 C 
BRANCH   2   3
HETATM    3  CG  0ZG E   1       0.865  -0.907  22.801  1.00 10.71    -0.020 A 
HETATM    4  CD2 0ZG E   1      -0.124  -1.691  22.240  1.00  9.73    -0.004 A 
HETATM    5  CE2 0ZG E   1       0.153  -3.003  21.939  1.00  9.59    -0.000 A 
HETATM    6  CZ  0ZG E   1       1.393  -3.561  22.178  1.00  9.52     0.003 A 
HETATM    7  CE1 0ZG E   1       2.416  -2.795  22.741  1.00  9.60     0.039 A 
HETATM    8  CD1 0ZG E   1       2.099  -1.482  23.035  1.00  9.96    -0.001 A 
BRANCH   7   9
HETATM    9  CF  0ZG E   1       3.694  -3.330  22.971  1.00  9.03     0.205 C 
HETATM   10  NG2 0ZG E   1       4.284  -3.179  24.173  1.00  9.25    -0.125 N 
HETATM   11  NG1 0ZG E   1       4.307  -4.012  21.986  1.00  8.04    -0.125 N 
ENDBRANCH   7   9
ENDBRANCH   2   3
ENDBRANCH   1   2
BRANCH   1  12
HETATM   12  C7  0ZG E   1      -0.525   2.776  22.549  1.00 13.65     0.257 C 
HETATM   13  N1  0ZG E   1      -1.781   3.233  22.387  1.00 13.52    -0.319 N 
HETATM   14  C21 0ZG E   1      -2.870   2.449  21.795  1.00 13.23     0.104 C 
HETATM   15  C61 0ZG E   1      -2.221   4.468  23.012  1.00 13.12     0.104 C 
HETATM   16  C31 0ZG E   1      -3.459   3.310  20.700  1.00 12.92     0.024 C 
HETATM   17  C41 0ZG E   1      -3.846   4.672  21.257  1.00 12.86     0.004 C 
HETATM   18  C51 0ZG E   1      -2.666   5.361  21.888  1.00 12.95     0.024 C 
HETATM   19  O   0ZG E   1       0.322   3.443  23.168  1.00 12.79    -0.270 OA
ENDBRANCH   1  12
BRANCH   1  20
HETATM   20  N   0ZG E   1       0.723   1.457  20.832  1.00 16.26    -0.177 NA
BRANCH  20  21
HETATM   21  S   0ZG E   1       0.229   0.702  19.405  1.00 18.07     0.282 S 
HETATM   22  O2S 0ZG E   1       0.267   1.734  18.285  1.00 18.65    -0.199 OA
HETATM   23  O1S 0ZG E   1      -1.163   0.142  19.657  1.00 18.26    -0.199 OA
BRANCH  21  24
HETATM   24  C1  0ZG E   1       1.283  -0.711  19.026  1.00 19.32     0.105 A 
HETATM   25  C6  0ZG E   1       2.610  -0.762  19.422  1.00 19.98     0.013 A 
HETATM   26  C5  0ZG E   1       3.308  -1.945  19.244  1.00 20.90    -0.004 A 
HETATM   27  C4  0ZG E   1       2.667  -3.042  18.666  1.00 21.71    -0.022 A 
HETATM   28  C   0ZG E   1       3.399  -4.375  18.495  1.00 22.51     0.031 C 
HETATM   29  C3  0ZG E   1       1.355  -2.966  18.237  1.00 21.05    -0.004 A 
HETATM   30  C2  0ZG E   1       0.665  -1.793  18.418  1.00 20.33     0.013 A 
ENDBRANCH  21  24
ENDBRANCH  20  21
ENDBRANCH   1  20
TORSDOF 7
ENDMDL
MODEL 9
REMARK VINA RESULT:      -5.9     10.521     14.736
REMARK  7 active torsions:
REMARK  status: ('A' for Active; 'I' for Inactive)
REMARK    1  A    between atoms: S_1  and  C1_4 
REMARK    2  A    between atoms: S_1  and  N_17 
REMARK       I    between atoms: N1_11  and  C7_19 
REMARK    3  A    between atoms: N_17  and  CA_18 
REMARK    4  A    between atoms: CA_18  and  CB_21 
REMARK    5  A    between atoms: CA_18  and  C7_19 
REMARK    6  A    between atoms: CB_21  and  CG_22 
REMARK    7  A    between atoms: CE1_25  and  CF_28 
ROOT
HETATM    1  CA  0ZG E   1      -0.661   3.254  22.212  1.00 14.15     0.198 C 
ENDROOT
BRANCH   1   2
HETATM    2  CB  0ZG E   1       0.184   3.797  23.378  1.00 12.21     0.061 C 
BRANCH   2   3
HETATM    3  CG  0ZG E   1       0.100   3.023  24.699  1.00 10.71    -0.020 A 
HETATM    4  CD2 0ZG E   1      -1.009   3.144  25.515  1.00  9.73    -0.004 A 
HETATM    5  CE2 0ZG E   1      -1.069   2.406  26.674  1.00  9.59    -0.000 A 
HETATM    6  CZ  0ZG E   1      -0.055   1.546  27.046  1.00  9.52     0.003 A 
HETATM    7  CE1 0ZG E   1       1.077   1.399  26.242  1.00  9.60     0.039 A 
HETATM    8  CD1 0ZG E   1       1.105   2.159  25.088  1.00  9.96    -0.001 A 
BRANCH   7   9
HETATM    9  CF  0ZG E   1       2.111   0.511  26.584  1.00  9.03     0.205 C 
HETATM   10  NG2 0ZG E   1       2.578  -0.366  25.674  1.00  9.25    -0.125 N 
HETATM   11  NG1 0ZG E   1       2.640   0.566  27.820  1.00  8.04    -0.125 N 
ENDBRANCH   7   9
ENDBRANCH   2   3
ENDBRANCH   1   2
BRANCH   1  12
HETATM   12  C7  0ZG E   1      -1.360   4.402  21.454  1.00 13.65     0.257 C 
HETATM   13  N1  0ZG E   1      -2.660   4.677  21.673  1.00 13.52    -0.319 N 
HETATM   14  C21 0ZG E   1      -3.485   3.995  22.676  1.00 13.23     0.104 C 
HETATM   15  C61 0ZG E   1      -3.291   5.849  21.093  1.00 13.12     0.104 C 
HETATM   16  C31 0ZG E   1      -4.719   3.514  21.945  1.00 12.92     0.024 C 
HETATM   17  C41 0ZG E   1      -5.380   4.673  21.215  1.00 12.86     0.004 C 
HETATM   18  C51 0ZG E   1      -4.426   5.331  20.254  1.00 12.95     0.024 C 
HETATM   19  O   0ZG E   1      -0.683   5.097  20.677  1.00 12.79    -0.270 OA
ENDBRANCH   1  12
BRANCH   1  20
HETATM   20  N   0ZG E   1       0.189   2.444  21.339  1.00 16.26    -0.177 NA
BRANCH  20  21
HETATM   21  S   0ZG E   1      -0.504   1.567  20.074  1.00 18.07     0.282 S 
HETATM   22  O2S 0ZG E   1      -0.590   2.478  18.856  1.00 18.65    -0.199 OA
HETATM   23  O1S 0ZG E   1      -1.863   1.085  20.558  1.00 18.26    -0.199 OA
BRANCH  21  24
HETATM   24  C1  0ZG E   1       0.460   0.086  19.714  1.00 19.32     0.105 A 
HETATM   25  C6  0ZG E   1       0.088  -0.806  18.720  1.00 19.98     0.013 A 
HETATM   26  C5  0ZG E   1       0.963  -1.827  18.388  1.00 20.90    -0.004 A 
HETATM   27  C4  0ZG E   1       2.180  -1.937  19.063  1.00 21.71    -0.022 A 
HETATM   28  C   0ZG E   1       3.185  -3.029  18.688  1.00 22.51     0.031 C 
HETATM   29  C3  0ZG E   1       2.521  -1.066  20.080  1.00 21.05    -0.004 A 
HETATM   30  C2  0ZG E   1       1.653  -0.053  20.405  1.00 20.33     0.013 A 
ENDBRANCH  21  24
ENDBRANCH  20  21
ENDBRANCH   1  20
TORSDOF 7
ENDMDL
