REMARK VINA RESULT:      -6.2     11.905     14.521
REMARK  7 active torsions:
REMARK  status: ('A' for Active; 'I' for Inactive)
REMARK    1  A    between atoms: S_1  and  C1_4 
REMARK    2  A    between atoms: S_1  and  N_17 
REMARK       I    between atoms: N1_11  and  C7_19 
REMARK    3  A    between atoms: N_17  and  CA_18 
REMARK    4  A    between atoms: CA_18  and  CB_21 
REMARK    5  A    between atoms: CA_18  and  C7_19 
REMARK    6  A    between atoms: CB_21  and  CG_22 
REMARK    7  A    between atoms: CE1_25  and  CF_28 
ROOT
HETATM    1  CA  0ZG E   1      -3.087   3.940  21.654  1.00 14.15     0.198 C 
ENDROOT
BRANCH   1   2
HETATM    2  CB  0ZG E   1      -3.755   2.692  21.048  1.00 12.21     0.061 C 
BRANCH   2   3
HETATM    3  CG  0ZG E   1      -2.896   1.423  20.984  1.00 10.71    -0.020 A 
HETATM    4  CD2 0ZG E   1      -3.397   0.212  21.426  1.00  9.73    -0.004 A 
HETATM    5  CE2 0ZG E   1      -2.615  -0.913  21.318  1.00  9.59    -0.000 A 
HETATM    6  CZ  0ZG E   1      -1.345  -0.872  20.778  1.00  9.52     0.003 A 
HETATM    7  CE1 0ZG E   1      -0.812   0.334  20.318  1.00  9.60     0.039 A 
HETATM    8  CD1 0ZG E   1      -1.624   1.444  20.448  1.00  9.96    -0.001 A 
BRANCH   7   9
HETATM    9  CF  0ZG E   1       0.467   0.399  19.740  1.00  9.03     0.205 C 
HETATM   10  NG2 0ZG E   1       1.539  -0.055  20.418  1.00  9.25    -0.125 N 
HETATM   11  NG1 0ZG E   1       0.601   0.899  18.499  1.00  8.04    -0.125 N 
ENDBRANCH   7   9
ENDBRANCH   2   3
ENDBRANCH   1   2
BRANCH   1  12
HETATM   12  C7  0ZG E   1      -3.737   5.231  21.113  1.00 13.65     0.257 C 
HETATM   13  N1  0ZG E   1      -3.089   6.002  20.219  1.00 13.52    -0.319 N 
HETATM   14  C21 0ZG E   1      -1.790   5.661  19.630  1.00 13.23     0.104 C 
HETATM   15  C61 0ZG E   1      -3.745   7.129  19.580  1.00 13.12     0.104 C 
HETATM   16  C31 0ZG E   1      -0.903   6.866  19.847  1.00 12.92     0.024 C 
HETATM   17  C41 0ZG E   1      -1.575   8.116  19.298  1.00 12.86     0.004 C 
HETATM   18  C51 0ZG E   1      -2.922   8.336  19.933  1.00 12.95     0.024 C 
HETATM   19  O   0ZG E   1      -4.890   5.513  21.483  1.00 12.79    -0.270 OA
ENDBRANCH   1  12
BRANCH   1  20
HETATM   20  N   0ZG E   1      -3.143   3.854  23.113  1.00 16.26    -0.177 NA
BRANCH  20  21
HETATM   21  S   0ZG E   1      -1.710   3.804  24.004  1.00 18.07     0.282 S 
HETATM   22  O2S 0ZG E   1      -1.958   4.493  25.340  1.00 18.65    -0.199 OA
HETATM   23  O1S 0ZG E   1      -0.640   4.488  23.167  1.00 18.26    -0.199 OA
BRANCH  21  24
HETATM   24  C1  0ZG E   1      -1.158   2.103  24.240  1.00 19.32     0.105 A 
HETATM   25  C6  0ZG E   1      -2.003   1.120  24.731  1.00 19.98     0.013 A 
HETATM   26  C5  0ZG E   1      -1.562  -0.193  24.727  1.00 20.90    -0.004 A 
HETATM   27  C4  0ZG E   1      -0.288  -0.489  24.243  1.00 21.71    -0.022 A 
HETATM   28  C   0ZG E   1       0.210  -1.935  24.186  1.00 22.51     0.031 C 
HETATM   29  C3  0ZG E   1       0.562   0.505  23.794  1.00 21.05    -0.004 A 
HETATM   30  C2  0ZG E   1       0.121   1.805  23.796  1.00 20.33     0.013 A 
ENDBRANCH  21  24
ENDBRANCH  20  21
ENDBRANCH   1  20
TORSDOF 7
