REMARK VINA RESULT:      -5.9     10.521     14.736
REMARK  7 active torsions:
REMARK  status: ('A' for Active; 'I' for Inactive)
REMARK    1  A    between atoms: S_1  and  C1_4 
REMARK    2  A    between atoms: S_1  and  N_17 
REMARK       I    between atoms: N1_11  and  C7_19 
REMARK    3  A    between atoms: N_17  and  CA_18 
REMARK    4  A    between atoms: CA_18  and  CB_21 
REMARK    5  A    between atoms: CA_18  and  C7_19 
REMARK    6  A    between atoms: CB_21  and  CG_22 
REMARK    7  A    between atoms: CE1_25  and  CF_28 
ROOT
HETATM    1  CA  0ZG E   1      -0.661   3.254  22.212  1.00 14.15     0.198 C 
ENDROOT
BRANCH   1   2
HETATM    2  CB  0ZG E   1       0.184   3.797  23.378  1.00 12.21     0.061 C 
BRANCH   2   3
HETATM    3  CG  0ZG E   1       0.100   3.023  24.699  1.00 10.71    -0.020 A 
HETATM    4  CD2 0ZG E   1      -1.009   3.144  25.515  1.00  9.73    -0.004 A 
HETATM    5  CE2 0ZG E   1      -1.069   2.406  26.674  1.00  9.59    -0.000 A 
HETATM    6  CZ  0ZG E   1      -0.055   1.546  27.046  1.00  9.52     0.003 A 
HETATM    7  CE1 0ZG E   1       1.077   1.399  26.242  1.00  9.60     0.039 A 
HETATM    8  CD1 0ZG E   1       1.105   2.159  25.088  1.00  9.96    -0.001 A 
BRANCH   7   9
HETATM    9  CF  0ZG E   1       2.111   0.511  26.584  1.00  9.03     0.205 C 
HETATM   10  NG2 0ZG E   1       2.578  -0.366  25.674  1.00  9.25    -0.125 N 
HETATM   11  NG1 0ZG E   1       2.640   0.566  27.820  1.00  8.04    -0.125 N 
ENDBRANCH   7   9
ENDBRANCH   2   3
ENDBRANCH   1   2
BRANCH   1  12
HETATM   12  C7  0ZG E   1      -1.360   4.402  21.454  1.00 13.65     0.257 C 
HETATM   13  N1  0ZG E   1      -2.660   4.677  21.673  1.00 13.52    -0.319 N 
HETATM   14  C21 0ZG E   1      -3.485   3.995  22.676  1.00 13.23     0.104 C 
HETATM   15  C61 0ZG E   1      -3.291   5.849  21.093  1.00 13.12     0.104 C 
HETATM   16  C31 0ZG E   1      -4.719   3.514  21.945  1.00 12.92     0.024 C 
HETATM   17  C41 0ZG E   1      -5.380   4.673  21.215  1.00 12.86     0.004 C 
HETATM   18  C51 0ZG E   1      -4.426   5.331  20.254  1.00 12.95     0.024 C 
HETATM   19  O   0ZG E   1      -0.683   5.097  20.677  1.00 12.79    -0.270 OA
ENDBRANCH   1  12
BRANCH   1  20
HETATM   20  N   0ZG E   1       0.189   2.444  21.339  1.00 16.26    -0.177 NA
BRANCH  20  21
HETATM   21  S   0ZG E   1      -0.504   1.567  20.074  1.00 18.07     0.282 S 
HETATM   22  O2S 0ZG E   1      -0.590   2.478  18.856  1.00 18.65    -0.199 OA
HETATM   23  O1S 0ZG E   1      -1.863   1.085  20.558  1.00 18.26    -0.199 OA
BRANCH  21  24
HETATM   24  C1  0ZG E   1       0.460   0.086  19.714  1.00 19.32     0.105 A 
HETATM   25  C6  0ZG E   1       0.088  -0.806  18.720  1.00 19.98     0.013 A 
HETATM   26  C5  0ZG E   1       0.963  -1.827  18.388  1.00 20.90    -0.004 A 
HETATM   27  C4  0ZG E   1       2.180  -1.937  19.063  1.00 21.71    -0.022 A 
HETATM   28  C   0ZG E   1       3.185  -3.029  18.688  1.00 22.51     0.031 C 
HETATM   29  C3  0ZG E   1       2.521  -1.066  20.080  1.00 21.05    -0.004 A 
HETATM   30  C2  0ZG E   1       1.653  -0.053  20.405  1.00 20.33     0.013 A 
ENDBRANCH  21  24
ENDBRANCH  20  21
ENDBRANCH   1  20
TORSDOF 7
