REMARK VINA RESULT:      -6.1      3.419      6.136
REMARK  7 active torsions:
REMARK  status: ('A' for Active; 'I' for Inactive)
REMARK    1  A    between atoms: S_1  and  C1_4 
REMARK    2  A    between atoms: S_1  and  N_17 
REMARK       I    between atoms: N1_11  and  C7_19 
REMARK    3  A    between atoms: N_17  and  CA_18 
REMARK    4  A    between atoms: CA_18  and  CB_21 
REMARK    5  A    between atoms: CA_18  and  C7_19 
REMARK    6  A    between atoms: CB_21  and  CG_22 
REMARK    7  A    between atoms: CE1_25  and  CF_28 
ROOT
HETATM    1  CA  0ZG E   1      -0.082  -4.449  15.919  1.00 14.15     0.198 C 
ENDROOT
BRANCH   1   2
HETATM    2  CB  0ZG E   1      -0.509  -5.914  15.718  1.00 12.21     0.061 C 
BRANCH   2   3
HETATM    3  CG  0ZG E   1      -1.441  -6.196  14.533  1.00 10.71    -0.020 A 
HETATM    4  CD2 0ZG E   1      -1.006  -6.955  13.462  1.00  9.73    -0.004 A 
HETATM    5  CE2 0ZG E   1      -1.879  -7.221  12.434  1.00  9.59    -0.000 A 
HETATM    6  CZ  0ZG E   1      -3.179  -6.756  12.440  1.00  9.52     0.003 A 
HETATM    7  CE1 0ZG E   1      -3.651  -5.991  13.509  1.00  9.60     0.039 A 
HETATM    8  CD1 0ZG E   1      -2.744  -5.739  14.521  1.00  9.96    -0.001 A 
BRANCH   7   9
HETATM    9  CF  0ZG E   1      -4.976  -5.527  13.552  1.00  9.03     0.205 C 
HETATM   10  NG2 0ZG E   1      -5.869  -5.943  12.632  1.00  9.25    -0.125 N 
HETATM   11  NG1 0ZG E   1      -5.344  -4.684  14.534  1.00  8.04    -0.125 N 
ENDBRANCH   7   9
ENDBRANCH   2   3
ENDBRANCH   1   2
BRANCH   1  12
HETATM   12  C7  0ZG E   1       1.079  -4.347  16.931  1.00 13.65     0.257 C 
HETATM   13  N1  0ZG E   1       1.119  -3.344  17.828  1.00 13.52    -0.319 N 
HETATM   14  C21 0ZG E   1       0.063  -2.338  17.983  1.00 13.23     0.104 C 
HETATM   15  C61 0ZG E   1       2.112  -3.319  18.888  1.00 13.12     0.104 C 
HETATM   16  C31 0ZG E   1       0.751  -0.993  17.910  1.00 12.92     0.024 C 
HETATM   17  C41 0ZG E   1       1.885  -0.930  18.922  1.00 12.86     0.004 C 
HETATM   18  C51 0ZG E   1       2.878  -2.039  18.703  1.00 12.95     0.024 C 
HETATM   19  O   0ZG E   1       1.945  -5.238  16.931  1.00 12.79    -0.270 OA
ENDBRANCH   1  12
BRANCH   1  20
HETATM   20  N   0ZG E   1       0.254  -3.865  14.621  1.00 16.26    -0.177 NA
BRANCH  20  21
HETATM   21  S   0ZG E   1      -0.487  -2.429  14.132  1.00 18.07     0.282 S 
HETATM   22  O2S 0ZG E   1       0.431  -1.271  14.503  1.00 18.65    -0.199 OA
HETATM   23  O1S 0ZG E   1      -1.839  -2.367  14.826  1.00 18.26    -0.199 OA
BRANCH  21  24
HETATM   24  C1  0ZG E   1      -0.827  -2.451  12.362  1.00 19.32     0.105 A 
HETATM   25  C6  0ZG E   1      -0.255  -1.532  11.495  1.00 19.98     0.013 A 
HETATM   26  C5  0ZG E   1      -0.428  -1.713  10.132  1.00 20.90    -0.004 A 
HETATM   27  C4  0ZG E   1      -1.174  -2.798   9.672  1.00 21.71    -0.022 A 
HETATM   28  C   0ZG E   1      -1.346  -3.048   8.171  1.00 22.51     0.031 C 
HETATM   29  C3  0ZG E   1      -1.774  -3.685  10.547  1.00 21.05    -0.004 A 
HETATM   30  C2  0ZG E   1      -1.598  -3.504  11.897  1.00 20.33     0.013 A 
ENDBRANCH  21  24
ENDBRANCH  20  21
ENDBRANCH   1  20
TORSDOF 7
