REMARK VINA RESULT:      -6.6      4.423      8.690
REMARK  15 active torsions:
REMARK  status: ('A' for Active; 'I' for Inactive)
REMARK    1  A    between atoms: N_1  and  CA_2 
REMARK       I    between atoms: N_1  and  C1_18 
REMARK    2  A    between atoms: CA_2  and  CB_5 
REMARK    3  A    between atoms: CA_2  and  C_3 
REMARK       I    between atoms: C_3  and  N3_23 
REMARK    4  A    between atoms: CB_5  and  CG_6 
REMARK    5  A    between atoms: CG_6  and  CD_7 
REMARK    6  A    between atoms: CD_7  and  NE_8 
REMARK    7  A    between atoms: C1'_17  and  C'_34 
REMARK    8  A    between atoms: C1_18  and  O2_21 
REMARK    9  A    between atoms: C2_20  and  C3_22 
REMARK   10  A    between atoms: C2_20  and  O2_21 
REMARK   11  A    between atoms: N3_23  and  C31_32 
REMARK   12  A    between atoms: C21_30  and  C31_32 
REMARK   13  A    between atoms: C31_32  and  C41_33 
REMARK   14  A    between atoms: C41_33  and  O'_35 
REMARK   15  A    between atoms: C'_34  and  O'_35 
ROOT
HETATM    1  CA  0E6 A 901      20.399  62.232  40.477  1.00  5.33     0.189 C 
ENDROOT
BRANCH   1   2
HETATM    2  CB  0E6 A 901      21.181  61.599  39.316  1.00  2.00     0.036 C 
BRANCH   2   3
HETATM    3  CG  0E6 A 901      22.716  61.719  39.446  1.00 26.32     0.029 C 
BRANCH   3   4
HETATM    4  CD  0E6 A 901      23.457  61.051  38.320  1.00 10.60     0.145 C 
BRANCH   4   5
HETATM    5  NE  0E6 A 901      24.670  60.386  38.756  1.00 55.91    -0.083 NA
HETATM    6  CZ  0E6 A 901      25.902  60.780  38.456  1.00 23.07     0.782 C 
HETATM    7  NH2 0E6 A 901      26.694  59.894  37.875  1.00 25.22     0.063 N 
HETATM    8  NH1 0E6 A 901      26.493  61.689  39.205  1.00 33.86     0.063 N 
ENDBRANCH   4   5
ENDBRANCH   3   4
ENDBRANCH   2   3
ENDBRANCH   1   2
BRANCH   1   9
HETATM    9  C   0E6 A 901      19.107  62.943  40.004  1.00  2.00     0.274 C 
HETATM   10  O   0E6 A 901      18.884  63.153  38.807  1.00 15.24    -0.268 OA
HETATM   11  N3  0E6 A 901      18.225  63.240  40.939  1.00 12.40    -0.228 NA
BRANCH  11  12
HETATM   12  C31 0E6 A 901      16.974  63.879  40.562  1.00  8.31     0.193 C 
BRANCH  12  13
HETATM   13  C21 0E6 A 901      16.921  65.319  40.998  1.00 12.89     0.176 C 
HETATM   14  O21 0E6 A 901      16.830  66.204  40.146  1.00 16.29    -0.294 OA
HETATM   15  C11 0E6 A 901      16.317  65.514  42.341  1.00  2.00     0.074 C 
ENDBRANCH  12  13
BRANCH  12  16
HETATM   16  C41 0E6 A 901      15.794  63.169  41.187  1.00  4.55     0.175 C 
BRANCH  16  17
HETATM   17  O'  0E6 A 901      16.391  62.242  42.087  1.00 23.29    -0.347 OA
BRANCH  17  18
HETATM   18  C'  0E6 A 901      15.342  61.562  42.770  1.00 16.34     0.169 C 
BRANCH  18  19
HETATM   19  C1' 0E6 A 901      14.542  62.435  43.698  1.00 15.52     0.007 A 
HETATM   20  C2' 0E6 A 901      13.178  62.623  43.493  1.00 21.99    -0.002 A 
HETATM   21  C3' 0E6 A 901      12.421  63.392  44.349  1.00 81.25    -0.000 A 
HETATM   22  C4' 0E6 A 901      13.016  63.992  45.434  1.00 24.94     0.000 A 
HETATM   23  C5' 0E6 A 901      14.383  63.836  45.653  1.00 21.89    -0.000 A 
HETATM   24  C6' 0E6 A 901      15.142  63.056  44.777  1.00 24.39    -0.002 A 
ENDBRANCH  18  19
ENDBRANCH  17  18
ENDBRANCH  16  17
ENDBRANCH  12  16
ENDBRANCH  11  12
ENDBRANCH   1   9
BRANCH   1  25
HETATM   25  N   0E6 A 901      20.075  61.232  41.451  1.00 10.44    -0.205 NA
HETATM   26  C1  0E6 A 901      20.558  61.353  42.679  1.00  5.70     0.384 C 
HETATM   27  O1  0E6 A 901      21.119  62.385  43.056  1.00 17.07    -0.236 OA
BRANCH  26  28
HETATM   28  O2  0E6 A 901      20.308  60.226  43.596  1.00  2.00    -0.279 OA
BRANCH  28  29
HETATM   29  C2  0E6 A 901      19.474  60.610  44.770  1.00  6.10     0.180 C 
BRANCH  29  30
HETATM   30  C3  0E6 A 901      18.189  59.829  44.869  1.00  8.83     0.008 A 
HETATM   31  C4  0E6 A 901      17.196  60.218  45.758  1.00  8.37    -0.002 A 
HETATM   32  C5  0E6 A 901      15.961  59.589  45.798  1.00 13.12    -0.000 A 
HETATM   33  C6  0E6 A 901      15.712  58.537  44.967  1.00  3.59     0.000 A 
HETATM   34  C7  0E6 A 901      16.712  58.098  44.089  1.00 23.62    -0.000 A 
HETATM   35  C8  0E6 A 901      17.947  58.757  44.045  1.00 12.57    -0.002 A 
ENDBRANCH  29  30
ENDBRANCH  28  29
ENDBRANCH  26  28
ENDBRANCH   1  25
TORSDOF 15
