REMARK VINA RESULT:      -6.0      3.374      6.167
REMARK  7 active torsions:
REMARK  status: ('A' for Active; 'I' for Inactive)
REMARK    1  A    between atoms: S_1  and  C1_4 
REMARK    2  A    between atoms: S_1  and  N_17 
REMARK       I    between atoms: N1_11  and  C7_19 
REMARK    3  A    between atoms: N_17  and  CA_18 
REMARK    4  A    between atoms: CA_18  and  CB_21 
REMARK    5  A    between atoms: CA_18  and  C7_19 
REMARK    6  A    between atoms: CB_21  and  CG_22 
REMARK    7  A    between atoms: CE1_25  and  CF_28 
ROOT
HETATM    1  CA  0ZG E   1      -0.075  -4.387  16.020  1.00 14.15     0.198 C 
ENDROOT
BRANCH   1   2
HETATM    2  CB  0ZG E   1      -0.426  -5.881  15.902  1.00 12.21     0.061 C 
BRANCH   2   3
HETATM    3  CG  0ZG E   1      -1.351  -6.275  14.744  1.00 10.71    -0.020 A 
HETATM    4  CD2 0ZG E   1      -0.871  -7.015  13.681  1.00  9.73    -0.004 A 
HETATM    5  CE2 0ZG E   1      -1.736  -7.384  12.678  1.00  9.59    -0.000 A 
HETATM    6  CZ  0ZG E   1      -3.073  -7.041  12.703  1.00  9.52     0.003 A 
HETATM    7  CE1 0ZG E   1      -3.591  -6.297  13.766  1.00  9.60     0.039 A 
HETATM    8  CD1 0ZG E   1      -2.691  -5.939  14.751  1.00  9.96    -0.001 A 
BRANCH   7   9
HETATM    9  CF  0ZG E   1      -4.952  -5.955  13.829  1.00  9.03     0.205 C 
HETATM   10  NG2 0ZG E   1      -5.625  -6.068  14.991  1.00  9.25    -0.125 N 
HETATM   11  NG1 0ZG E   1      -5.565  -5.496  12.723  1.00  8.04    -0.125 N 
ENDBRANCH   7   9
ENDBRANCH   2   3
ENDBRANCH   1   2
BRANCH   1  12
HETATM   12  C7  0ZG E   1       1.065  -4.167  17.037  1.00 13.65     0.257 C 
HETATM   13  N1  0ZG E   1       1.038  -3.117  17.879  1.00 13.52    -0.319 N 
HETATM   14  C21 0ZG E   1      -0.074  -2.165  17.969  1.00 13.23     0.104 C 
HETATM   15  C61 0ZG E   1       2.014  -2.980  18.946  1.00 13.12     0.104 C 
HETATM   16  C31 0ZG E   1       0.540  -0.789  17.830  1.00 12.92     0.024 C 
HETATM   17  C41 0ZG E   1       1.655  -0.609  18.850  1.00 12.86     0.004 C 
HETATM   18  C51 0ZG E   1       2.711  -1.671  18.700  1.00 12.95     0.024 C 
HETATM   19  O   0ZG E   1       1.979  -5.007  17.093  1.00 12.79    -0.270 OA
ENDBRANCH   1  12
BRANCH   1  20
HETATM   20  N   0ZG E   1       0.249  -3.864  14.694  1.00 16.26    -0.177 NA
BRANCH  20  21
HETATM   21  S   0ZG E   1      -0.518  -2.468  14.134  1.00 18.07     0.282 S 
HETATM   22  O2S 0ZG E   1       0.418  -1.288  14.364  1.00 18.65    -0.199 OA
HETATM   23  O1S 0ZG E   1      -1.831  -2.347  14.891  1.00 18.26    -0.199 OA
BRANCH  21  24
HETATM   24  C1  0ZG E   1      -0.950  -2.626  12.391  1.00 19.32     0.105 A 
HETATM   25  C6  0ZG E   1      -0.367  -1.833  11.416  1.00 19.98     0.013 A 
HETATM   26  C5  0ZG E   1      -0.622  -2.124  10.086  1.00 20.90    -0.004 A 
HETATM   27  C4  0ZG E   1      -1.460  -3.192   9.765  1.00 21.71    -0.022 A 
HETATM   28  C   0ZG E   1      -1.726  -3.564   8.304  1.00 22.51     0.031 C 
HETATM   29  C3  0ZG E   1      -2.070  -3.951  10.746  1.00 21.05    -0.004 A 
HETATM   30  C2  0ZG E   1      -1.812  -3.661  12.063  1.00 20.33     0.013 A 
ENDBRANCH  21  24
ENDBRANCH  20  21
ENDBRANCH   1  20
TORSDOF 7
