REMARK VINA RESULT:      -6.2     11.308     14.902
REMARK  7 active torsions:
REMARK  status: ('A' for Active; 'I' for Inactive)
REMARK    1  A    between atoms: S_1  and  C1_4 
REMARK    2  A    between atoms: S_1  and  N_17 
REMARK       I    between atoms: N1_11  and  C7_19 
REMARK    3  A    between atoms: N_17  and  CA_18 
REMARK    4  A    between atoms: CA_18  and  CB_21 
REMARK    5  A    between atoms: CA_18  and  C7_19 
REMARK    6  A    between atoms: CB_21  and  CG_22 
REMARK    7  A    between atoms: CE1_25  and  CF_28 
ROOT
HETATM    1  CA  0ZG E   1      -0.683   2.252  20.979  1.00 14.15     0.198 C 
ENDROOT
BRANCH   1   2
HETATM    2  CB  0ZG E   1      -1.221   3.132  19.836  1.00 12.21     0.061 C 
BRANCH   2   3
HETATM    3  CG  0ZG E   1      -2.267   4.185  20.221  1.00 10.71    -0.020 A 
HETATM    4  CD2 0ZG E   1      -3.392   3.829  20.939  1.00  9.73    -0.004 A 
HETATM    5  CE2 0ZG E   1      -4.290   4.805  21.301  1.00  9.59    -0.000 A 
HETATM    6  CZ  0ZG E   1      -4.100   6.132  20.972  1.00  9.52     0.003 A 
HETATM    7  CE1 0ZG E   1      -2.971   6.525  20.250  1.00  9.60     0.039 A 
HETATM    8  CD1 0ZG E   1      -2.094   5.517  19.899  1.00  9.96    -0.001 A 
BRANCH   7   9
HETATM    9  CF  0ZG E   1      -2.740   7.873  19.924  1.00  9.03     0.205 C 
HETATM   10  NG2 0ZG E   1      -1.502   8.284  19.585  1.00  9.25    -0.125 N 
HETATM   11  NG1 0ZG E   1      -3.772   8.736  19.934  1.00  8.04    -0.125 N 
ENDBRANCH   7   9
ENDBRANCH   2   3
ENDBRANCH   1   2
BRANCH   1  12
HETATM   12  C7  0ZG E   1       0.122   1.058  20.424  1.00 13.65     0.257 C 
HETATM   13  N1  0ZG E   1      -0.344  -0.200  20.549  1.00 13.52    -0.319 N 
HETATM   14  C21 0ZG E   1      -1.650  -0.537  21.124  1.00 13.23     0.104 C 
HETATM   15  C61 0ZG E   1       0.315  -1.317  19.896  1.00 13.12     0.104 C 
HETATM   16  C31 0ZG E   1      -1.382  -1.574  22.192  1.00 12.92     0.024 C 
HETATM   17  C41 0ZG E   1      -0.592  -2.735  21.607  1.00 12.86     0.004 C 
HETATM   18  C51 0ZG E   1       0.702  -2.265  20.997  1.00 12.95     0.024 C 
HETATM   19  O   0ZG E   1       1.182   1.288  19.817  1.00 12.79    -0.270 OA
ENDBRANCH   1  12
BRANCH   1  20
HETATM   20  N   0ZG E   1       0.104   3.080  21.892  1.00 16.26    -0.177 NA
BRANCH  20  21
HETATM   21  S   0ZG E   1       0.003   2.819  23.557  1.00 18.07     0.282 S 
HETATM   22  O2S 0ZG E   1       1.073   3.664  24.236  1.00 18.65    -0.199 OA
HETATM   23  O1S 0ZG E   1       0.183   1.326  23.786  1.00 18.26    -0.199 OA
BRANCH  21  24
HETATM   24  C1  0ZG E   1      -1.641   3.231  24.174  1.00 19.32     0.105 A 
HETATM   25  C6  0ZG E   1      -1.981   4.521  24.549  1.00 19.98     0.013 A 
HETATM   26  C5  0ZG E   1      -3.304   4.794  24.852  1.00 20.90    -0.004 A 
HETATM   27  C4  0ZG E   1      -4.251   3.771  24.784  1.00 21.71    -0.022 A 
HETATM   28  C   0ZG E   1      -5.728   4.053  25.072  1.00 22.51     0.031 C 
HETATM   29  C3  0ZG E   1      -3.893   2.479  24.449  1.00 21.05    -0.004 A 
HETATM   30  C2  0ZG E   1      -2.581   2.212  24.146  1.00 20.33     0.013 A 
ENDBRANCH  21  24
ENDBRANCH  20  21
ENDBRANCH   1  20
TORSDOF 7
