REMARK VINA RESULT:      -6.2      3.062      5.498
REMARK  7 active torsions:
REMARK  status: ('A' for Active; 'I' for Inactive)
REMARK    1  A    between atoms: S_1  and  C1_4 
REMARK    2  A    between atoms: S_1  and  N_17 
REMARK       I    between atoms: N1_11  and  C7_19 
REMARK    3  A    between atoms: N_17  and  CA_18 
REMARK    4  A    between atoms: CA_18  and  CB_21 
REMARK    5  A    between atoms: CA_18  and  C7_19 
REMARK    6  A    between atoms: CB_21  and  CG_22 
REMARK    7  A    between atoms: CE1_25  and  CF_28 
ROOT
HETATM    1  CA  0ZG E   1      -0.109  -4.423  15.996  1.00 14.15     0.198 C 
ENDROOT
BRANCH   1   2
HETATM    2  CB  0ZG E   1      -0.464  -5.916  15.873  1.00 12.21     0.061 C 
BRANCH   2   3
HETATM    3  CG  0ZG E   1      -1.330  -6.314  14.672  1.00 10.71    -0.020 A 
HETATM    4  CD2 0ZG E   1      -2.676  -6.000  14.642  1.00  9.73    -0.004 A 
HETATM    5  CE2 0ZG E   1      -3.416  -6.337  13.533  1.00  9.59    -0.000 A 
HETATM    6  CZ  0ZG E   1      -2.855  -6.977  12.447  1.00  9.52     0.003 A 
HETATM    7  CE1 0ZG E   1      -1.497  -7.304  12.444  1.00  9.60     0.039 A 
HETATM    8  CD1 0ZG E   1      -0.787  -6.955  13.577  1.00  9.96    -0.001 A 
BRANCH   7   9
HETATM    9  CF  0ZG E   1      -0.895  -7.933  11.341  1.00  9.03     0.205 C 
HETATM   10  NG2 0ZG E   1      -0.974  -7.374  10.118  1.00  9.25    -0.125 N 
HETATM   11  NG1 0ZG E   1      -0.223  -9.083  11.528  1.00  8.04    -0.125 N 
ENDBRANCH   7   9
ENDBRANCH   2   3
ENDBRANCH   1   2
BRANCH   1  12
HETATM   12  C7  0ZG E   1       1.042  -4.210  17.002  1.00 13.65     0.257 C 
HETATM   13  N1  0ZG E   1       1.022  -3.169  17.856  1.00 13.52    -0.319 N 
HETATM   14  C21 0ZG E   1      -0.091  -2.221  17.968  1.00 13.23     0.104 C 
HETATM   15  C61 0ZG E   1       2.009  -3.042  18.914  1.00 13.12     0.104 C 
HETATM   16  C31 0ZG E   1       0.518  -0.843  17.837  1.00 12.92     0.024 C 
HETATM   17  C41 0ZG E   1       1.644  -0.671  18.846  1.00 12.86     0.004 C 
HETATM   18  C51 0ZG E   1       2.701  -1.729  18.673  1.00 12.95     0.024 C 
HETATM   19  O   0ZG E   1       1.959  -5.049  17.039  1.00 12.79    -0.270 OA
ENDBRANCH   1  12
BRANCH   1  20
HETATM   20  N   0ZG E   1       0.203  -3.892  14.669  1.00 16.26    -0.177 NA
BRANCH  20  21
HETATM   21  S   0ZG E   1      -0.536  -2.470  14.141  1.00 18.07     0.282 S 
HETATM   22  O2S 0ZG E   1       0.389  -1.304  14.469  1.00 18.65    -0.199 OA
HETATM   23  O1S 0ZG E   1      -1.883  -2.381  14.843  1.00 18.26    -0.199 OA
BRANCH  21  24
HETATM   24  C1  0ZG E   1      -0.889  -2.545  12.375  1.00 19.32     0.105 A 
HETATM   25  C6  0ZG E   1      -0.315  -1.662  11.474  1.00 19.98     0.013 A 
HETATM   26  C5  0ZG E   1      -0.500  -1.885  10.120  1.00 20.90    -0.004 A 
HETATM   27  C4  0ZG E   1      -1.261  -2.977   9.700  1.00 21.71    -0.022 A 
HETATM   28  C   0ZG E   1      -1.447  -3.274   8.210  1.00 22.51     0.031 C 
HETATM   29  C3  0ZG E   1      -1.863  -3.828  10.608  1.00 21.05    -0.004 A 
HETATM   30  C2  0ZG E   1      -1.675  -3.605  11.950  1.00 20.33     0.013 A 
ENDBRANCH  21  24
ENDBRANCH  20  21
ENDBRANCH   1  20
TORSDOF 7
