REMARK VINA RESULT:      -6.4      0.000      0.000
REMARK  7 active torsions:
REMARK  status: ('A' for Active; 'I' for Inactive)
REMARK    1  A    between atoms: S_1  and  C1_4 
REMARK    2  A    between atoms: S_1  and  N_17 
REMARK       I    between atoms: N1_11  and  C7_19 
REMARK    3  A    between atoms: N_17  and  CA_18 
REMARK    4  A    between atoms: CA_18  and  CB_21 
REMARK    5  A    between atoms: CA_18  and  C7_19 
REMARK    6  A    between atoms: CB_21  and  CG_22 
REMARK    7  A    between atoms: CE1_25  and  CF_28 
ROOT
HETATM    1  CA  0ZG E   1      -0.539  -2.660  11.460  1.00 14.15     0.198 C 
ENDROOT
BRANCH   1   2
HETATM    2  CB  0ZG E   1      -0.284  -1.769  10.231  1.00 12.21     0.061 C 
BRANCH   2   3
HETATM    3  CG  0ZG E   1      -0.296  -2.469   8.867  1.00 10.71    -0.020 A 
HETATM    4  CD2 0ZG E   1      -1.170  -2.062   7.876  1.00  9.73    -0.004 A 
HETATM    5  CE2 0ZG E   1      -1.128  -2.686   6.652  1.00  9.59    -0.000 A 
HETATM    6  CZ  0ZG E   1      -0.236  -3.704   6.380  1.00  9.52     0.003 A 
HETATM    7  CE1 0ZG E   1       0.663  -4.134   7.357  1.00  9.60     0.039 A 
HETATM    8  CD1 0ZG E   1       0.588  -3.489   8.577  1.00  9.96    -0.001 A 
BRANCH   7   9
HETATM    9  CF  0ZG E   1       1.598  -5.151   7.099  1.00  9.03     0.205 C 
HETATM   10  NG2 0ZG E   1       1.249  -6.444   7.245  1.00  9.25    -0.125 N 
HETATM   11  NG1 0ZG E   1       2.833  -4.815   6.684  1.00  8.04    -0.125 N 
ENDBRANCH   7   9
ENDBRANCH   2   3
ENDBRANCH   1   2
BRANCH   1  12
HETATM   12  C7  0ZG E   1      -0.356  -1.862  12.768  1.00 13.65     0.257 C 
HETATM   13  N1  0ZG E   1      -0.119  -2.498  13.931  1.00 13.52    -0.319 N 
HETATM   14  C21 0ZG E   1       0.067  -3.948  14.051  1.00 13.23     0.104 C 
HETATM   15  C61 0ZG E   1       0.215  -1.763  15.139  1.00 13.12     0.104 C 
HETATM   16  C31 0ZG E   1      -0.895  -4.407  15.124  1.00 12.92     0.024 C 
HETATM   17  C41 0ZG E   1      -0.681  -3.601  16.396  1.00 12.86     0.004 C 
HETATM   18  C51 0ZG E   1      -0.842  -2.126  16.144  1.00 12.95     0.024 C 
HETATM   19  O   0ZG E   1      -0.383  -0.621  12.714  1.00 12.79    -0.270 OA
ENDBRANCH   1  12
BRANCH   1  20
HETATM   20  N   0ZG E   1      -1.870  -3.259  11.351  1.00 16.26    -0.177 NA
BRANCH  20  21
HETATM   21  S   0ZG E   1      -2.022  -4.921  11.101  1.00 18.07     0.282 S 
HETATM   22  O2S 0ZG E   1      -2.932  -5.483  12.187  1.00 18.65    -0.199 OA
HETATM   23  O1S 0ZG E   1      -0.619  -5.507  11.134  1.00 18.26    -0.199 OA
BRANCH  21  24
HETATM   24  C1  0ZG E   1      -2.677  -5.267   9.458  1.00 19.32     0.105 A 
HETATM   25  C6  0ZG E   1      -3.680  -4.496   8.891  1.00 19.98     0.013 A 
HETATM   26  C5  0ZG E   1      -4.014  -4.716   7.565  1.00 20.90    -0.004 A 
HETATM   27  C4  0ZG E   1      -3.346  -5.706   6.843  1.00 21.71    -0.022 A 
HETATM   28  C   0ZG E   1      -3.664  -5.943   5.364  1.00 22.51     0.031 C 
HETATM   29  C3  0ZG E   1      -2.377  -6.497   7.430  1.00 21.05    -0.004 A 
HETATM   30  C2  0ZG E   1      -2.046  -6.274   8.744  1.00 20.33     0.013 A 
ENDBRANCH  21  24
ENDBRANCH  20  21
ENDBRANCH   1  20
TORSDOF 7
