REMARK VINA RESULT:      -6.1     24.391     26.474
REMARK  7 active torsions:
REMARK  status: ('A' for Active; 'I' for Inactive)
REMARK    1  A    between atoms: S_1  and  C1_4 
REMARK    2  A    between atoms: S_1  and  N_17 
REMARK       I    between atoms: N1_11  and  C7_19 
REMARK    3  A    between atoms: N_17  and  CA_18 
REMARK    4  A    between atoms: CA_18  and  CB_21 
REMARK    5  A    between atoms: CA_18  and  C7_19 
REMARK    6  A    between atoms: CB_21  and  CG_22 
REMARK    7  A    between atoms: CE1_25  and  CF_28 
ROOT
HETATM    1  CA  0ZG E   1       7.458  21.020   7.921  1.00 14.15     0.198 C 
ENDROOT
BRANCH   1   2
HETATM    2  CB  0ZG E   1       7.489  19.483   8.015  1.00 12.21     0.061 C 
BRANCH   2   3
HETATM    3  CG  0ZG E   1       7.680  18.723   6.696  1.00 10.71    -0.020 A 
HETATM    4  CD2 0ZG E   1       8.325  17.501   6.677  1.00  9.73    -0.004 A 
HETATM    5  CE2 0ZG E   1       8.445  16.829   5.484  1.00  9.59    -0.000 A 
HETATM    6  CZ  0ZG E   1       7.937  17.335   4.305  1.00  9.52     0.003 A 
HETATM    7  CE1 0ZG E   1       7.275  18.564   4.291  1.00  9.60     0.039 A 
HETATM    8  CD1 0ZG E   1       7.179  19.215   5.507  1.00  9.96    -0.001 A 
BRANCH   7   9
HETATM    9  CF  0ZG E   1       6.726  19.091   3.110  1.00  9.03     0.205 C 
HETATM   10  NG2 0ZG E   1       5.975  20.209   3.153  1.00  9.25    -0.125 N 
HETATM   11  NG1 0ZG E   1       6.978  18.478   1.940  1.00  8.04    -0.125 N 
ENDBRANCH   7   9
ENDBRANCH   2   3
ENDBRANCH   1   2
BRANCH   1  12
HETATM   12  C7  0ZG E   1       6.367  21.607   8.840  1.00 13.65     0.257 C 
HETATM   13  N1  0ZG E   1       5.107  21.767   8.393  1.00 13.52    -0.319 N 
HETATM   14  C21 0ZG E   1       4.646  21.337   7.068  1.00 13.23     0.104 C 
HETATM   15  C61 0ZG E   1       4.034  22.165   9.286  1.00 13.12     0.104 C 
HETATM   16  C31 0ZG E   1       3.980  22.544   6.445  1.00 12.92     0.024 C 
HETATM   17  C41 0ZG E   1       2.910  23.090   7.378  1.00 12.86     0.004 C 
HETATM   18  C51 0ZG E   1       3.485  23.446   8.723  1.00 12.95     0.024 C 
HETATM   19  O   0ZG E   1       6.666  21.880  10.015  1.00 12.79    -0.270 OA
ENDBRANCH   1  12
BRANCH   1  20
HETATM   20  N   0ZG E   1       8.789  21.546   8.225  1.00 16.26    -0.177 NA
BRANCH  20  21
HETATM   21  S   0ZG E   1       9.846  21.929   6.966  1.00 18.07     0.282 S 
HETATM   22  O2S 0ZG E   1      10.801  23.008   7.460  1.00 18.65    -0.199 OA
HETATM   23  O1S 0ZG E   1       8.993  22.379   5.789  1.00 18.26    -0.199 OA
BRANCH  21  24
HETATM   24  C1  0ZG E   1      10.743  20.467   6.411  1.00 19.32     0.105 A 
HETATM   25  C6  0ZG E   1      11.301  19.567   7.306  1.00 19.98     0.013 A 
HETATM   26  C5  0ZG E   1      11.827  18.384   6.812  1.00 20.90    -0.004 A 
HETATM   27  C4  0ZG E   1      11.792  18.136   5.439  1.00 21.71    -0.022 A 
HETATM   28  C   0ZG E   1      12.326  16.820   4.869  1.00 22.51     0.031 C 
HETATM   29  C3  0ZG E   1      11.270  19.060   4.553  1.00 21.05    -0.004 A 
HETATM   30  C2  0ZG E   1      10.747  20.229   5.046  1.00 20.33     0.013 A 
ENDBRANCH  21  24
ENDBRANCH  20  21
ENDBRANCH   1  20
TORSDOF 7
