REMARK VINA RESULT:      -6.0     10.032     12.791
REMARK  7 active torsions:
REMARK  status: ('A' for Active; 'I' for Inactive)
REMARK    1  A    between atoms: S_1  and  C1_4 
REMARK    2  A    between atoms: S_1  and  N_17 
REMARK       I    between atoms: N1_11  and  C7_19 
REMARK    3  A    between atoms: N_17  and  CA_18 
REMARK    4  A    between atoms: CA_18  and  CB_21 
REMARK    5  A    between atoms: CA_18  and  C7_19 
REMARK    6  A    between atoms: CB_21  and  CG_22 
REMARK    7  A    between atoms: CE1_25  and  CF_28 
ROOT
HETATM    1  CA  0ZG E   1      -0.111   1.391  22.041  1.00 14.15     0.198 C 
ENDROOT
BRANCH   1   2
HETATM    2  CB  0ZG E   1       0.647   0.592  23.117  1.00 12.21     0.061 C 
BRANCH   2   3
HETATM    3  CG  0ZG E   1       0.903  -0.889  22.812  1.00 10.71    -0.020 A 
HETATM    4  CD2 0ZG E   1      -0.095  -1.678  22.270  1.00  9.73    -0.004 A 
HETATM    5  CE2 0ZG E   1       0.180  -2.991  21.973  1.00  9.59    -0.000 A 
HETATM    6  CZ  0ZG E   1       1.423  -3.547  22.196  1.00  9.52     0.003 A 
HETATM    7  CE1 0ZG E   1       2.454  -2.776  22.738  1.00  9.60     0.039 A 
HETATM    8  CD1 0ZG E   1       2.140  -1.463  23.030  1.00  9.96    -0.001 A 
BRANCH   7   9
HETATM    9  CF  0ZG E   1       3.736  -3.310  22.952  1.00  9.03     0.205 C 
HETATM   10  NG2 0ZG E   1       4.419  -3.860  21.929  1.00  9.25    -0.125 N 
HETATM   11  NG1 0ZG E   1       4.277  -3.243  24.182  1.00  8.04    -0.125 N 
ENDBRANCH   7   9
ENDBRANCH   2   3
ENDBRANCH   1   2
BRANCH   1  12
HETATM   12  C7  0ZG E   1      -0.521   2.781  22.573  1.00 13.65     0.257 C 
HETATM   13  N1  0ZG E   1      -1.784   3.224  22.428  1.00 13.52    -0.319 N 
HETATM   14  C21 0ZG E   1      -2.872   2.429  21.850  1.00 13.23     0.104 C 
HETATM   15  C61 0ZG E   1      -2.229   4.454  23.060  1.00 13.12     0.104 C 
HETATM   16  C31 0ZG E   1      -3.485   3.284  20.763  1.00 12.92     0.024 C 
HETATM   17  C41 0ZG E   1      -3.879   4.642  21.326  1.00 12.86     0.004 C 
HETATM   18  C51 0ZG E   1      -2.697   5.343  21.941  1.00 12.95     0.024 C 
HETATM   19  O   0ZG E   1       0.327   3.456  23.181  1.00 12.79    -0.270 OA
ENDBRANCH   1  12
BRANCH   1  20
HETATM   20  N   0ZG E   1       0.713   1.475  20.836  1.00 16.26    -0.177 NA
BRANCH  20  21
HETATM   21  S   0ZG E   1       0.198   0.720  19.416  1.00 18.07     0.282 S 
HETATM   22  O2S 0ZG E   1       0.232   1.749  18.293  1.00 18.65    -0.199 OA
HETATM   23  O1S 0ZG E   1      -1.195   0.172  19.683  1.00 18.26    -0.199 OA
BRANCH  21  24
HETATM   24  C1  0ZG E   1       1.237  -0.702  19.029  1.00 19.32     0.105 A 
HETATM   25  C6  0ZG E   1       2.576  -0.749  19.384  1.00 19.98     0.013 A 
HETATM   26  C5  0ZG E   1       3.266  -1.936  19.205  1.00 20.90    -0.004 A 
HETATM   27  C4  0ZG E   1       2.605  -3.041  18.667  1.00 21.71    -0.022 A 
HETATM   28  C   0ZG E   1       3.330  -4.379  18.498  1.00 22.51     0.031 C 
HETATM   29  C3  0ZG E   1       1.280  -2.970  18.279  1.00 21.05    -0.004 A 
HETATM   30  C2  0ZG E   1       0.599  -1.793  18.461  1.00 20.33     0.013 A 
ENDBRANCH  21  24
ENDBRANCH  20  21
ENDBRANCH   1  20
TORSDOF 7
