REMARK VINA RESULT:      -6.2     11.148     14.169
REMARK  7 active torsions:
REMARK  status: ('A' for Active; 'I' for Inactive)
REMARK    1  A    between atoms: S_1  and  C1_4 
REMARK    2  A    between atoms: S_1  and  N_17 
REMARK       I    between atoms: N1_11  and  C7_19 
REMARK    3  A    between atoms: N_17  and  CA_18 
REMARK    4  A    between atoms: CA_18  and  CB_21 
REMARK    5  A    between atoms: CA_18  and  C7_19 
REMARK    6  A    between atoms: CB_21  and  CG_22 
REMARK    7  A    between atoms: CE1_25  and  CF_28 
ROOT
HETATM    1  CA  0ZG E   1      -2.709   3.870  21.250  1.00 14.15     0.198 C 
ENDROOT
BRANCH   1   2
HETATM    2  CB  0ZG E   1      -3.529   2.588  21.020  1.00 12.21     0.061 C 
BRANCH   2   3
HETATM    3  CG  0ZG E   1      -2.733   1.284  20.890  1.00 10.71    -0.020 A 
HETATM    4  CD2 0ZG E   1      -3.206   0.113  21.453  1.00  9.73    -0.004 A 
HETATM    5  CE2 0ZG E   1      -2.487  -1.046  21.286  1.00  9.59    -0.000 A 
HETATM    6  CZ  0ZG E   1      -1.307  -1.078  20.569  1.00  9.52     0.003 A 
HETATM    7  CE1 0ZG E   1      -0.805   0.086  19.984  1.00  9.60     0.039 A 
HETATM    8  CD1 0ZG E   1      -1.551   1.233  20.178  1.00  9.96    -0.001 A 
BRANCH   7   9
HETATM    9  CF  0ZG E   1       0.380   0.077  19.228  1.00  9.03     0.205 C 
HETATM   10  NG2 0ZG E   1       1.535   0.503  19.776  1.00  9.25    -0.125 N 
HETATM   11  NG1 0ZG E   1       0.347  -0.382  17.964  1.00  8.04    -0.125 N 
ENDBRANCH   7   9
ENDBRANCH   2   3
ENDBRANCH   1   2
BRANCH   1  12
HETATM   12  C7  0ZG E   1      -3.501   5.119  20.808  1.00 13.65     0.257 C 
HETATM   13  N1  0ZG E   1      -2.927   6.053  20.027  1.00 13.52    -0.319 N 
HETATM   14  C21 0ZG E   1      -1.575   5.939  19.469  1.00 13.23     0.104 C 
HETATM   15  C61 0ZG E   1      -3.700   7.149  19.470  1.00 13.12     0.104 C 
HETATM   16  C31 0ZG E   1      -0.858   7.217  19.845  1.00 12.92     0.024 C 
HETATM   17  C41 0ZG E   1      -1.666   8.423  19.390  1.00 12.86     0.004 C 
HETATM   18  C51 0ZG E   1      -3.052   8.407  19.978  1.00 12.95     0.024 C 
HETATM   19  O   0ZG E   1      -4.692   5.216  21.149  1.00 12.79    -0.270 OA
ENDBRANCH   1  12
BRANCH   1  20
HETATM   20  N   0ZG E   1      -2.302   3.934  22.654  1.00 16.26    -0.177 NA
BRANCH  20  21
HETATM   21  S   0ZG E   1      -0.717   3.545  23.085  1.00 18.07     0.282 S 
HETATM   22  O2S 0ZG E   1      -0.249   4.551  24.129  1.00 18.65    -0.199 OA
HETATM   23  O1S 0ZG E   1       0.112   3.577  21.810  1.00 18.26    -0.199 OA
BRANCH  21  24
HETATM   24  C1  0ZG E   1      -0.616   1.858  23.713  1.00 19.32     0.105 A 
HETATM   25  C6  0ZG E   1      -1.621   1.304  24.490  1.00 19.98     0.013 A 
HETATM   26  C5  0ZG E   1      -1.554  -0.045  24.794  1.00 20.90    -0.004 A 
HETATM   27  C4  0ZG E   1      -0.481  -0.803  24.325  1.00 21.71    -0.022 A 
HETATM   28  C   0ZG E   1      -0.402  -2.306  24.609  1.00 22.51     0.031 C 
HETATM   29  C3  0ZG E   1       0.537  -0.231  23.586  1.00 21.05    -0.004 A 
HETATM   30  C2  0ZG E   1       0.466   1.106  23.284  1.00 20.33     0.013 A 
ENDBRANCH  21  24
ENDBRANCH  20  21
ENDBRANCH   1  20
TORSDOF 7
