REMARK VINA RESULT:      -6.0     10.333     13.591
REMARK  7 active torsions:
REMARK  status: ('A' for Active; 'I' for Inactive)
REMARK    1  A    between atoms: S_1  and  C1_4 
REMARK    2  A    between atoms: S_1  and  N_17 
REMARK       I    between atoms: N1_11  and  C7_19 
REMARK    3  A    between atoms: N_17  and  CA_18 
REMARK    4  A    between atoms: CA_18  and  CB_21 
REMARK    5  A    between atoms: CA_18  and  C7_19 
REMARK    6  A    between atoms: CB_21  and  CG_22 
REMARK    7  A    between atoms: CE1_25  and  CF_28 
ROOT
HETATM    1  CA  0ZG E   1      -0.612   2.460  21.419  1.00 14.15     0.198 C 
ENDROOT
BRANCH   1   2
HETATM    2  CB  0ZG E   1      -1.637   2.673  20.290  1.00 12.21     0.061 C 
BRANCH   2   3
HETATM    3  CG  0ZG E   1      -2.536   3.910  20.411  1.00 10.71    -0.020 A 
HETATM    4  CD2 0ZG E   1      -3.825   3.798  20.896  1.00  9.73    -0.004 A 
HETATM    5  CE2 0ZG E   1      -4.591   4.932  21.027  1.00  9.59    -0.000 A 
HETATM    6  CZ  0ZG E   1      -4.110   6.181  20.692  1.00  9.52     0.003 A 
HETATM    7  CE1 0ZG E   1      -2.810   6.330  20.202  1.00  9.60     0.039 A 
HETATM    8  CD1 0ZG E   1      -2.073   5.168  20.079  1.00  9.96    -0.001 A 
BRANCH   7   9
HETATM    9  CF  0ZG E   1      -2.287   7.593  19.877  1.00  9.03     0.205 C 
HETATM   10  NG2 0ZG E   1      -3.108   8.654  19.757  1.00  9.25    -0.125 N 
HETATM   11  NG1 0ZG E   1      -0.959   7.729  19.711  1.00  8.04    -0.125 N 
ENDBRANCH   7   9
ENDBRANCH   2   3
ENDBRANCH   1   2
BRANCH   1  12
HETATM   12  C7  0ZG E   1      -1.279   1.827  22.658  1.00 13.65     0.257 C 
HETATM   13  N1  0ZG E   1      -0.870   2.154  23.899  1.00 13.52    -0.319 N 
HETATM   14  C21 0ZG E   1       0.151   3.167  24.186  1.00 13.23     0.104 C 
HETATM   15  C61 0ZG E   1      -1.587   1.695  25.075  1.00 13.12     0.104 C 
HETATM   16  C31 0ZG E   1       1.165   2.496  25.085  1.00 12.92     0.024 C 
HETATM   17  C41 0ZG E   1       0.471   1.890  26.295  1.00 12.86     0.004 C 
HETATM   18  C51 0ZG E   1      -0.592   0.907  25.881  1.00 12.95     0.024 C 
HETATM   19  O   0ZG E   1      -2.234   1.050  22.485  1.00 12.79    -0.270 OA
ENDBRANCH   1  12
BRANCH   1  20
HETATM   20  N   0ZG E   1       0.500   1.657  20.911  1.00 16.26    -0.177 NA
BRANCH  20  21
HETATM   21  S   0ZG E   1       0.272   0.668  19.562  1.00 18.07     0.282 S 
HETATM   22  O2S 0ZG E   1       0.208   1.558  18.327  1.00 18.65    -0.199 OA
HETATM   23  O1S 0ZG E   1      -1.007  -0.121  19.799  1.00 18.26    -0.199 OA
BRANCH  21  24
HETATM   24  C1  0ZG E   1       1.598  -0.546  19.422  1.00 19.32     0.105 A 
HETATM   25  C6  0ZG E   1       2.605  -0.644  20.370  1.00 19.98     0.013 A 
HETATM   26  C5  0ZG E   1       3.491  -1.705  20.286  1.00 20.90    -0.004 A 
HETATM   27  C4  0ZG E   1       3.355  -2.634  19.254  1.00 21.71    -0.022 A 
HETATM   28  C   0ZG E   1       4.292  -3.841  19.161  1.00 22.51     0.031 C 
HETATM   29  C3  0ZG E   1       2.371  -2.504  18.292  1.00 21.05    -0.004 A 
HETATM   30  C2  0ZG E   1       1.493  -1.453  18.379  1.00 20.33     0.013 A 
ENDBRANCH  21  24
ENDBRANCH  20  21
ENDBRANCH   1  20
TORSDOF 7
