MODEL 1
REMARK VINA RESULT:      -6.4      0.000      0.000
REMARK  7 active torsions:
REMARK  status: ('A' for Active; 'I' for Inactive)
REMARK    1  A    between atoms: S_1  and  C1_4 
REMARK    2  A    between atoms: S_1  and  N_17 
REMARK       I    between atoms: N1_11  and  C7_19 
REMARK    3  A    between atoms: N_17  and  CA_18 
REMARK    4  A    between atoms: CA_18  and  CB_21 
REMARK    5  A    between atoms: CA_18  and  C7_19 
REMARK    6  A    between atoms: CB_21  and  CG_22 
REMARK    7  A    between atoms: CE1_25  and  CF_28 
ROOT
HETATM    1  CA  0ZG E   1      -0.539  -2.660  11.460  1.00 14.15     0.198 C 
ENDROOT
BRANCH   1   2
HETATM    2  CB  0ZG E   1      -0.284  -1.769  10.231  1.00 12.21     0.061 C 
BRANCH   2   3
HETATM    3  CG  0ZG E   1      -0.296  -2.469   8.867  1.00 10.71    -0.020 A 
HETATM    4  CD2 0ZG E   1      -1.170  -2.062   7.876  1.00  9.73    -0.004 A 
HETATM    5  CE2 0ZG E   1      -1.128  -2.686   6.652  1.00  9.59    -0.000 A 
HETATM    6  CZ  0ZG E   1      -0.236  -3.704   6.380  1.00  9.52     0.003 A 
HETATM    7  CE1 0ZG E   1       0.663  -4.134   7.357  1.00  9.60     0.039 A 
HETATM    8  CD1 0ZG E   1       0.588  -3.489   8.577  1.00  9.96    -0.001 A 
BRANCH   7   9
HETATM    9  CF  0ZG E   1       1.598  -5.151   7.099  1.00  9.03     0.205 C 
HETATM   10  NG2 0ZG E   1       1.249  -6.444   7.245  1.00  9.25    -0.125 N 
HETATM   11  NG1 0ZG E   1       2.833  -4.815   6.684  1.00  8.04    -0.125 N 
ENDBRANCH   7   9
ENDBRANCH   2   3
ENDBRANCH   1   2
BRANCH   1  12
HETATM   12  C7  0ZG E   1      -0.356  -1.862  12.768  1.00 13.65     0.257 C 
HETATM   13  N1  0ZG E   1      -0.119  -2.498  13.931  1.00 13.52    -0.319 N 
HETATM   14  C21 0ZG E   1       0.067  -3.948  14.051  1.00 13.23     0.104 C 
HETATM   15  C61 0ZG E   1       0.215  -1.763  15.139  1.00 13.12     0.104 C 
HETATM   16  C31 0ZG E   1      -0.895  -4.407  15.124  1.00 12.92     0.024 C 
HETATM   17  C41 0ZG E   1      -0.681  -3.601  16.396  1.00 12.86     0.004 C 
HETATM   18  C51 0ZG E   1      -0.842  -2.126  16.144  1.00 12.95     0.024 C 
HETATM   19  O   0ZG E   1      -0.383  -0.621  12.714  1.00 12.79    -0.270 OA
ENDBRANCH   1  12
BRANCH   1  20
HETATM   20  N   0ZG E   1      -1.870  -3.259  11.351  1.00 16.26    -0.177 NA
BRANCH  20  21
HETATM   21  S   0ZG E   1      -2.022  -4.921  11.101  1.00 18.07     0.282 S 
HETATM   22  O2S 0ZG E   1      -2.932  -5.483  12.187  1.00 18.65    -0.199 OA
HETATM   23  O1S 0ZG E   1      -0.619  -5.507  11.134  1.00 18.26    -0.199 OA
BRANCH  21  24
HETATM   24  C1  0ZG E   1      -2.677  -5.267   9.458  1.00 19.32     0.105 A 
HETATM   25  C6  0ZG E   1      -3.680  -4.496   8.891  1.00 19.98     0.013 A 
HETATM   26  C5  0ZG E   1      -4.014  -4.716   7.565  1.00 20.90    -0.004 A 
HETATM   27  C4  0ZG E   1      -3.346  -5.706   6.843  1.00 21.71    -0.022 A 
HETATM   28  C   0ZG E   1      -3.664  -5.943   5.364  1.00 22.51     0.031 C 
HETATM   29  C3  0ZG E   1      -2.377  -6.497   7.430  1.00 21.05    -0.004 A 
HETATM   30  C2  0ZG E   1      -2.046  -6.274   8.744  1.00 20.33     0.013 A 
ENDBRANCH  21  24
ENDBRANCH  20  21
ENDBRANCH   1  20
TORSDOF 7
ENDMDL
MODEL 2
REMARK VINA RESULT:      -6.2     11.148     14.169
REMARK  7 active torsions:
REMARK  status: ('A' for Active; 'I' for Inactive)
REMARK    1  A    between atoms: S_1  and  C1_4 
REMARK    2  A    between atoms: S_1  and  N_17 
REMARK       I    between atoms: N1_11  and  C7_19 
REMARK    3  A    between atoms: N_17  and  CA_18 
REMARK    4  A    between atoms: CA_18  and  CB_21 
REMARK    5  A    between atoms: CA_18  and  C7_19 
REMARK    6  A    between atoms: CB_21  and  CG_22 
REMARK    7  A    between atoms: CE1_25  and  CF_28 
ROOT
HETATM    1  CA  0ZG E   1      -2.709   3.870  21.250  1.00 14.15     0.198 C 
ENDROOT
BRANCH   1   2
HETATM    2  CB  0ZG E   1      -3.529   2.588  21.020  1.00 12.21     0.061 C 
BRANCH   2   3
HETATM    3  CG  0ZG E   1      -2.733   1.284  20.890  1.00 10.71    -0.020 A 
HETATM    4  CD2 0ZG E   1      -3.206   0.113  21.453  1.00  9.73    -0.004 A 
HETATM    5  CE2 0ZG E   1      -2.487  -1.046  21.286  1.00  9.59    -0.000 A 
HETATM    6  CZ  0ZG E   1      -1.307  -1.078  20.569  1.00  9.52     0.003 A 
HETATM    7  CE1 0ZG E   1      -0.805   0.086  19.984  1.00  9.60     0.039 A 
HETATM    8  CD1 0ZG E   1      -1.551   1.233  20.178  1.00  9.96    -0.001 A 
BRANCH   7   9
HETATM    9  CF  0ZG E   1       0.380   0.077  19.228  1.00  9.03     0.205 C 
HETATM   10  NG2 0ZG E   1       1.535   0.503  19.776  1.00  9.25    -0.125 N 
HETATM   11  NG1 0ZG E   1       0.347  -0.382  17.964  1.00  8.04    -0.125 N 
ENDBRANCH   7   9
ENDBRANCH   2   3
ENDBRANCH   1   2
BRANCH   1  12
HETATM   12  C7  0ZG E   1      -3.501   5.119  20.808  1.00 13.65     0.257 C 
HETATM   13  N1  0ZG E   1      -2.927   6.053  20.027  1.00 13.52    -0.319 N 
HETATM   14  C21 0ZG E   1      -1.575   5.939  19.469  1.00 13.23     0.104 C 
HETATM   15  C61 0ZG E   1      -3.700   7.149  19.470  1.00 13.12     0.104 C 
HETATM   16  C31 0ZG E   1      -0.858   7.217  19.845  1.00 12.92     0.024 C 
HETATM   17  C41 0ZG E   1      -1.666   8.423  19.390  1.00 12.86     0.004 C 
HETATM   18  C51 0ZG E   1      -3.052   8.407  19.978  1.00 12.95     0.024 C 
HETATM   19  O   0ZG E   1      -4.692   5.216  21.149  1.00 12.79    -0.270 OA
ENDBRANCH   1  12
BRANCH   1  20
HETATM   20  N   0ZG E   1      -2.302   3.934  22.654  1.00 16.26    -0.177 NA
BRANCH  20  21
HETATM   21  S   0ZG E   1      -0.717   3.545  23.085  1.00 18.07     0.282 S 
HETATM   22  O2S 0ZG E   1      -0.249   4.551  24.129  1.00 18.65    -0.199 OA
HETATM   23  O1S 0ZG E   1       0.112   3.577  21.810  1.00 18.26    -0.199 OA
BRANCH  21  24
HETATM   24  C1  0ZG E   1      -0.616   1.858  23.713  1.00 19.32     0.105 A 
HETATM   25  C6  0ZG E   1      -1.621   1.304  24.490  1.00 19.98     0.013 A 
HETATM   26  C5  0ZG E   1      -1.554  -0.045  24.794  1.00 20.90    -0.004 A 
HETATM   27  C4  0ZG E   1      -0.481  -0.803  24.325  1.00 21.71    -0.022 A 
HETATM   28  C   0ZG E   1      -0.402  -2.306  24.609  1.00 22.51     0.031 C 
HETATM   29  C3  0ZG E   1       0.537  -0.231  23.586  1.00 21.05    -0.004 A 
HETATM   30  C2  0ZG E   1       0.466   1.106  23.284  1.00 20.33     0.013 A 
ENDBRANCH  21  24
ENDBRANCH  20  21
ENDBRANCH   1  20
TORSDOF 7
ENDMDL
MODEL 3
REMARK VINA RESULT:      -6.2     19.481     22.681
REMARK  7 active torsions:
REMARK  status: ('A' for Active; 'I' for Inactive)
REMARK    1  A    between atoms: S_1  and  C1_4 
REMARK    2  A    between atoms: S_1  and  N_17 
REMARK       I    between atoms: N1_11  and  C7_19 
REMARK    3  A    between atoms: N_17  and  CA_18 
REMARK    4  A    between atoms: CA_18  and  CB_21 
REMARK    5  A    between atoms: CA_18  and  C7_19 
REMARK    6  A    between atoms: CB_21  and  CG_22 
REMARK    7  A    between atoms: CE1_25  and  CF_28 
ROOT
HETATM    1  CA  0ZG E   1      -1.798   7.331  31.135  1.00 14.15     0.198 C 
ENDROOT
BRANCH   1   2
HETATM    2  CB  0ZG E   1      -1.062   7.233  29.787  1.00 12.21     0.061 C 
BRANCH   2   3
HETATM    3  CG  0ZG E   1      -1.281   5.946  28.982  1.00 10.71    -0.020 A 
HETATM    4  CD2 0ZG E   1      -1.871   5.990  27.733  1.00  9.73    -0.004 A 
HETATM    5  CE2 0ZG E   1      -2.018   4.822  27.023  1.00  9.59    -0.000 A 
HETATM    6  CZ  0ZG E   1      -1.589   3.607  27.517  1.00  9.52     0.003 A 
HETATM    7  CE1 0ZG E   1      -0.984   3.529  28.773  1.00  9.60     0.039 A 
HETATM    8  CD1 0ZG E   1      -0.860   4.721  29.461  1.00  9.96    -0.001 A 
BRANCH   7   9
HETATM    9  CF  0ZG E   1      -0.516   2.309  29.290  1.00  9.03     0.205 C 
HETATM   10  NG2 0ZG E   1       0.276   1.517  28.540  1.00  9.25    -0.125 N 
HETATM   11  NG1 0ZG E   1      -0.850   1.956  30.544  1.00  8.04    -0.125 N 
ENDBRANCH   7   9
ENDBRANCH   2   3
ENDBRANCH   1   2
BRANCH   1  12
HETATM   12  C7  0ZG E   1      -1.125   8.370  32.057  1.00 13.65     0.257 C 
HETATM   13  N1  0ZG E   1      -1.048   8.160  33.385  1.00 13.52    -0.319 N 
HETATM   14  C21 0ZG E   1      -1.502   6.934  34.049  1.00 13.23     0.104 C 
HETATM   15  C61 0ZG E   1      -0.281   9.043  34.245  1.00 13.12     0.104 C 
HETATM   16  C31 0ZG E   1      -2.428   7.378  35.160  1.00 12.92     0.024 C 
HETATM   17  C41 0ZG E   1      -1.729   8.396  36.048  1.00 12.86     0.004 C 
HETATM   18  C51 0ZG E   1      -1.258   9.584  35.252  1.00 12.95     0.024 C 
HETATM   19  O   0ZG E   1      -0.612   9.377  31.539  1.00 12.79    -0.270 OA
ENDBRANCH   1  12
BRANCH   1  20
HETATM   20  N   0ZG E   1      -3.209   7.630  30.892  1.00 16.26    -0.177 NA
BRANCH  20  21
HETATM   21  S   0ZG E   1      -4.369   6.422  31.102  1.00 18.07     0.282 S 
HETATM   22  O2S 0ZG E   1      -5.470   6.973  32.000  1.00 18.65    -0.199 OA
HETATM   23  O1S 0ZG E   1      -3.656   5.218  31.698  1.00 18.26    -0.199 OA
BRANCH  21  24
HETATM   24  C1  0ZG E   1      -5.032   5.884  29.514  1.00 19.32     0.105 A 
HETATM   25  C6  0ZG E   1      -5.376   6.786  28.519  1.00 19.98     0.013 A 
HETATM   26  C5  0ZG E   1      -5.718   6.295  27.270  1.00 20.90    -0.004 A 
HETATM   27  C4  0ZG E   1      -5.718   4.917  27.050  1.00 21.71    -0.022 A 
HETATM   28  C   0ZG E   1      -6.049   4.347  25.668  1.00 22.51     0.031 C 
HETATM   29  C3  0ZG E   1      -5.413   4.025  28.060  1.00 21.05    -0.004 A 
HETATM   30  C2  0ZG E   1      -5.071   4.516  29.296  1.00 20.33     0.013 A 
ENDBRANCH  21  24
ENDBRANCH  20  21
ENDBRANCH   1  20
TORSDOF 7
ENDMDL
MODEL 4
REMARK VINA RESULT:      -6.2      3.062      5.498
REMARK  7 active torsions:
REMARK  status: ('A' for Active; 'I' for Inactive)
REMARK    1  A    between atoms: S_1  and  C1_4 
REMARK    2  A    between atoms: S_1  and  N_17 
REMARK       I    between atoms: N1_11  and  C7_19 
REMARK    3  A    between atoms: N_17  and  CA_18 
REMARK    4  A    between atoms: CA_18  and  CB_21 
REMARK    5  A    between atoms: CA_18  and  C7_19 
REMARK    6  A    between atoms: CB_21  and  CG_22 
REMARK    7  A    between atoms: CE1_25  and  CF_28 
ROOT
HETATM    1  CA  0ZG E   1      -0.109  -4.423  15.996  1.00 14.15     0.198 C 
ENDROOT
BRANCH   1   2
HETATM    2  CB  0ZG E   1      -0.464  -5.916  15.873  1.00 12.21     0.061 C 
BRANCH   2   3
HETATM    3  CG  0ZG E   1      -1.330  -6.314  14.672  1.00 10.71    -0.020 A 
HETATM    4  CD2 0ZG E   1      -2.676  -6.000  14.642  1.00  9.73    -0.004 A 
HETATM    5  CE2 0ZG E   1      -3.416  -6.337  13.533  1.00  9.59    -0.000 A 
HETATM    6  CZ  0ZG E   1      -2.855  -6.977  12.447  1.00  9.52     0.003 A 
HETATM    7  CE1 0ZG E   1      -1.497  -7.304  12.444  1.00  9.60     0.039 A 
HETATM    8  CD1 0ZG E   1      -0.787  -6.955  13.577  1.00  9.96    -0.001 A 
BRANCH   7   9
HETATM    9  CF  0ZG E   1      -0.895  -7.933  11.341  1.00  9.03     0.205 C 
HETATM   10  NG2 0ZG E   1      -0.974  -7.374  10.118  1.00  9.25    -0.125 N 
HETATM   11  NG1 0ZG E   1      -0.223  -9.083  11.528  1.00  8.04    -0.125 N 
ENDBRANCH   7   9
ENDBRANCH   2   3
ENDBRANCH   1   2
BRANCH   1  12
HETATM   12  C7  0ZG E   1       1.042  -4.210  17.002  1.00 13.65     0.257 C 
HETATM   13  N1  0ZG E   1       1.022  -3.169  17.856  1.00 13.52    -0.319 N 
HETATM   14  C21 0ZG E   1      -0.091  -2.221  17.968  1.00 13.23     0.104 C 
HETATM   15  C61 0ZG E   1       2.009  -3.042  18.914  1.00 13.12     0.104 C 
HETATM   16  C31 0ZG E   1       0.518  -0.843  17.837  1.00 12.92     0.024 C 
HETATM   17  C41 0ZG E   1       1.644  -0.671  18.846  1.00 12.86     0.004 C 
HETATM   18  C51 0ZG E   1       2.701  -1.729  18.673  1.00 12.95     0.024 C 
HETATM   19  O   0ZG E   1       1.959  -5.049  17.039  1.00 12.79    -0.270 OA
ENDBRANCH   1  12
BRANCH   1  20
HETATM   20  N   0ZG E   1       0.203  -3.892  14.669  1.00 16.26    -0.177 NA
BRANCH  20  21
HETATM   21  S   0ZG E   1      -0.536  -2.470  14.141  1.00 18.07     0.282 S 
HETATM   22  O2S 0ZG E   1       0.389  -1.304  14.469  1.00 18.65    -0.199 OA
HETATM   23  O1S 0ZG E   1      -1.883  -2.381  14.843  1.00 18.26    -0.199 OA
BRANCH  21  24
HETATM   24  C1  0ZG E   1      -0.889  -2.545  12.375  1.00 19.32     0.105 A 
HETATM   25  C6  0ZG E   1      -0.315  -1.662  11.474  1.00 19.98     0.013 A 
HETATM   26  C5  0ZG E   1      -0.500  -1.885  10.120  1.00 20.90    -0.004 A 
HETATM   27  C4  0ZG E   1      -1.261  -2.977   9.700  1.00 21.71    -0.022 A 
HETATM   28  C   0ZG E   1      -1.447  -3.274   8.210  1.00 22.51     0.031 C 
HETATM   29  C3  0ZG E   1      -1.863  -3.828  10.608  1.00 21.05    -0.004 A 
HETATM   30  C2  0ZG E   1      -1.675  -3.605  11.950  1.00 20.33     0.013 A 
ENDBRANCH  21  24
ENDBRANCH  20  21
ENDBRANCH   1  20
TORSDOF 7
ENDMDL
MODEL 5
REMARK VINA RESULT:      -6.2     11.308     14.902
REMARK  7 active torsions:
REMARK  status: ('A' for Active; 'I' for Inactive)
REMARK    1  A    between atoms: S_1  and  C1_4 
REMARK    2  A    between atoms: S_1  and  N_17 
REMARK       I    between atoms: N1_11  and  C7_19 
REMARK    3  A    between atoms: N_17  and  CA_18 
REMARK    4  A    between atoms: CA_18  and  CB_21 
REMARK    5  A    between atoms: CA_18  and  C7_19 
REMARK    6  A    between atoms: CB_21  and  CG_22 
REMARK    7  A    between atoms: CE1_25  and  CF_28 
ROOT
HETATM    1  CA  0ZG E   1      -0.683   2.252  20.979  1.00 14.15     0.198 C 
ENDROOT
BRANCH   1   2
HETATM    2  CB  0ZG E   1      -1.221   3.132  19.836  1.00 12.21     0.061 C 
BRANCH   2   3
HETATM    3  CG  0ZG E   1      -2.267   4.185  20.221  1.00 10.71    -0.020 A 
HETATM    4  CD2 0ZG E   1      -3.392   3.829  20.939  1.00  9.73    -0.004 A 
HETATM    5  CE2 0ZG E   1      -4.290   4.805  21.301  1.00  9.59    -0.000 A 
HETATM    6  CZ  0ZG E   1      -4.100   6.132  20.972  1.00  9.52     0.003 A 
HETATM    7  CE1 0ZG E   1      -2.971   6.525  20.250  1.00  9.60     0.039 A 
HETATM    8  CD1 0ZG E   1      -2.094   5.517  19.899  1.00  9.96    -0.001 A 
BRANCH   7   9
HETATM    9  CF  0ZG E   1      -2.740   7.873  19.924  1.00  9.03     0.205 C 
HETATM   10  NG2 0ZG E   1      -1.502   8.284  19.585  1.00  9.25    -0.125 N 
HETATM   11  NG1 0ZG E   1      -3.772   8.736  19.934  1.00  8.04    -0.125 N 
ENDBRANCH   7   9
ENDBRANCH   2   3
ENDBRANCH   1   2
BRANCH   1  12
HETATM   12  C7  0ZG E   1       0.122   1.058  20.424  1.00 13.65     0.257 C 
HETATM   13  N1  0ZG E   1      -0.344  -0.200  20.549  1.00 13.52    -0.319 N 
HETATM   14  C21 0ZG E   1      -1.650  -0.537  21.124  1.00 13.23     0.104 C 
HETATM   15  C61 0ZG E   1       0.315  -1.317  19.896  1.00 13.12     0.104 C 
HETATM   16  C31 0ZG E   1      -1.382  -1.574  22.192  1.00 12.92     0.024 C 
HETATM   17  C41 0ZG E   1      -0.592  -2.735  21.607  1.00 12.86     0.004 C 
HETATM   18  C51 0ZG E   1       0.702  -2.265  20.997  1.00 12.95     0.024 C 
HETATM   19  O   0ZG E   1       1.182   1.288  19.817  1.00 12.79    -0.270 OA
ENDBRANCH   1  12
BRANCH   1  20
HETATM   20  N   0ZG E   1       0.104   3.080  21.892  1.00 16.26    -0.177 NA
BRANCH  20  21
HETATM   21  S   0ZG E   1       0.003   2.819  23.557  1.00 18.07     0.282 S 
HETATM   22  O2S 0ZG E   1       1.073   3.664  24.236  1.00 18.65    -0.199 OA
HETATM   23  O1S 0ZG E   1       0.183   1.326  23.786  1.00 18.26    -0.199 OA
BRANCH  21  24
HETATM   24  C1  0ZG E   1      -1.641   3.231  24.174  1.00 19.32     0.105 A 
HETATM   25  C6  0ZG E   1      -1.981   4.521  24.549  1.00 19.98     0.013 A 
HETATM   26  C5  0ZG E   1      -3.304   4.794  24.852  1.00 20.90    -0.004 A 
HETATM   27  C4  0ZG E   1      -4.251   3.771  24.784  1.00 21.71    -0.022 A 
HETATM   28  C   0ZG E   1      -5.728   4.053  25.072  1.00 22.51     0.031 C 
HETATM   29  C3  0ZG E   1      -3.893   2.479  24.449  1.00 21.05    -0.004 A 
HETATM   30  C2  0ZG E   1      -2.581   2.212  24.146  1.00 20.33     0.013 A 
ENDBRANCH  21  24
ENDBRANCH  20  21
ENDBRANCH   1  20
TORSDOF 7
ENDMDL
MODEL 6
REMARK VINA RESULT:      -6.1     24.391     26.474
REMARK  7 active torsions:
REMARK  status: ('A' for Active; 'I' for Inactive)
REMARK    1  A    between atoms: S_1  and  C1_4 
REMARK    2  A    between atoms: S_1  and  N_17 
REMARK       I    between atoms: N1_11  and  C7_19 
REMARK    3  A    between atoms: N_17  and  CA_18 
REMARK    4  A    between atoms: CA_18  and  CB_21 
REMARK    5  A    between atoms: CA_18  and  C7_19 
REMARK    6  A    between atoms: CB_21  and  CG_22 
REMARK    7  A    between atoms: CE1_25  and  CF_28 
ROOT
HETATM    1  CA  0ZG E   1       7.458  21.020   7.921  1.00 14.15     0.198 C 
ENDROOT
BRANCH   1   2
HETATM    2  CB  0ZG E   1       7.489  19.483   8.015  1.00 12.21     0.061 C 
BRANCH   2   3
HETATM    3  CG  0ZG E   1       7.680  18.723   6.696  1.00 10.71    -0.020 A 
HETATM    4  CD2 0ZG E   1       8.325  17.501   6.677  1.00  9.73    -0.004 A 
HETATM    5  CE2 0ZG E   1       8.445  16.829   5.484  1.00  9.59    -0.000 A 
HETATM    6  CZ  0ZG E   1       7.937  17.335   4.305  1.00  9.52     0.003 A 
HETATM    7  CE1 0ZG E   1       7.275  18.564   4.291  1.00  9.60     0.039 A 
HETATM    8  CD1 0ZG E   1       7.179  19.215   5.507  1.00  9.96    -0.001 A 
BRANCH   7   9
HETATM    9  CF  0ZG E   1       6.726  19.091   3.110  1.00  9.03     0.205 C 
HETATM   10  NG2 0ZG E   1       5.975  20.209   3.153  1.00  9.25    -0.125 N 
HETATM   11  NG1 0ZG E   1       6.978  18.478   1.940  1.00  8.04    -0.125 N 
ENDBRANCH   7   9
ENDBRANCH   2   3
ENDBRANCH   1   2
BRANCH   1  12
HETATM   12  C7  0ZG E   1       6.367  21.607   8.840  1.00 13.65     0.257 C 
HETATM   13  N1  0ZG E   1       5.107  21.767   8.393  1.00 13.52    -0.319 N 
HETATM   14  C21 0ZG E   1       4.646  21.337   7.068  1.00 13.23     0.104 C 
HETATM   15  C61 0ZG E   1       4.034  22.165   9.286  1.00 13.12     0.104 C 
HETATM   16  C31 0ZG E   1       3.980  22.544   6.445  1.00 12.92     0.024 C 
HETATM   17  C41 0ZG E   1       2.910  23.090   7.378  1.00 12.86     0.004 C 
HETATM   18  C51 0ZG E   1       3.485  23.446   8.723  1.00 12.95     0.024 C 
HETATM   19  O   0ZG E   1       6.666  21.880  10.015  1.00 12.79    -0.270 OA
ENDBRANCH   1  12
BRANCH   1  20
HETATM   20  N   0ZG E   1       8.789  21.546   8.225  1.00 16.26    -0.177 NA
BRANCH  20  21
HETATM   21  S   0ZG E   1       9.846  21.929   6.966  1.00 18.07     0.282 S 
HETATM   22  O2S 0ZG E   1      10.801  23.008   7.460  1.00 18.65    -0.199 OA
HETATM   23  O1S 0ZG E   1       8.993  22.379   5.789  1.00 18.26    -0.199 OA
BRANCH  21  24
HETATM   24  C1  0ZG E   1      10.743  20.467   6.411  1.00 19.32     0.105 A 
HETATM   25  C6  0ZG E   1      11.301  19.567   7.306  1.00 19.98     0.013 A 
HETATM   26  C5  0ZG E   1      11.827  18.384   6.812  1.00 20.90    -0.004 A 
HETATM   27  C4  0ZG E   1      11.792  18.136   5.439  1.00 21.71    -0.022 A 
HETATM   28  C   0ZG E   1      12.326  16.820   4.869  1.00 22.51     0.031 C 
HETATM   29  C3  0ZG E   1      11.270  19.060   4.553  1.00 21.05    -0.004 A 
HETATM   30  C2  0ZG E   1      10.747  20.229   5.046  1.00 20.33     0.013 A 
ENDBRANCH  21  24
ENDBRANCH  20  21
ENDBRANCH   1  20
TORSDOF 7
ENDMDL
MODEL 7
REMARK VINA RESULT:      -6.0     10.032     12.791
REMARK  7 active torsions:
REMARK  status: ('A' for Active; 'I' for Inactive)
REMARK    1  A    between atoms: S_1  and  C1_4 
REMARK    2  A    between atoms: S_1  and  N_17 
REMARK       I    between atoms: N1_11  and  C7_19 
REMARK    3  A    between atoms: N_17  and  CA_18 
REMARK    4  A    between atoms: CA_18  and  CB_21 
REMARK    5  A    between atoms: CA_18  and  C7_19 
REMARK    6  A    between atoms: CB_21  and  CG_22 
REMARK    7  A    between atoms: CE1_25  and  CF_28 
ROOT
HETATM    1  CA  0ZG E   1      -0.111   1.391  22.041  1.00 14.15     0.198 C 
ENDROOT
BRANCH   1   2
HETATM    2  CB  0ZG E   1       0.647   0.592  23.117  1.00 12.21     0.061 C 
BRANCH   2   3
HETATM    3  CG  0ZG E   1       0.903  -0.889  22.812  1.00 10.71    -0.020 A 
HETATM    4  CD2 0ZG E   1      -0.095  -1.678  22.270  1.00  9.73    -0.004 A 
HETATM    5  CE2 0ZG E   1       0.180  -2.991  21.973  1.00  9.59    -0.000 A 
HETATM    6  CZ  0ZG E   1       1.423  -3.547  22.196  1.00  9.52     0.003 A 
HETATM    7  CE1 0ZG E   1       2.454  -2.776  22.738  1.00  9.60     0.039 A 
HETATM    8  CD1 0ZG E   1       2.140  -1.463  23.030  1.00  9.96    -0.001 A 
BRANCH   7   9
HETATM    9  CF  0ZG E   1       3.736  -3.310  22.952  1.00  9.03     0.205 C 
HETATM   10  NG2 0ZG E   1       4.419  -3.860  21.929  1.00  9.25    -0.125 N 
HETATM   11  NG1 0ZG E   1       4.277  -3.243  24.182  1.00  8.04    -0.125 N 
ENDBRANCH   7   9
ENDBRANCH   2   3
ENDBRANCH   1   2
BRANCH   1  12
HETATM   12  C7  0ZG E   1      -0.521   2.781  22.573  1.00 13.65     0.257 C 
HETATM   13  N1  0ZG E   1      -1.784   3.224  22.428  1.00 13.52    -0.319 N 
HETATM   14  C21 0ZG E   1      -2.872   2.429  21.850  1.00 13.23     0.104 C 
HETATM   15  C61 0ZG E   1      -2.229   4.454  23.060  1.00 13.12     0.104 C 
HETATM   16  C31 0ZG E   1      -3.485   3.284  20.763  1.00 12.92     0.024 C 
HETATM   17  C41 0ZG E   1      -3.879   4.642  21.326  1.00 12.86     0.004 C 
HETATM   18  C51 0ZG E   1      -2.697   5.343  21.941  1.00 12.95     0.024 C 
HETATM   19  O   0ZG E   1       0.327   3.456  23.181  1.00 12.79    -0.270 OA
ENDBRANCH   1  12
BRANCH   1  20
HETATM   20  N   0ZG E   1       0.713   1.475  20.836  1.00 16.26    -0.177 NA
BRANCH  20  21
HETATM   21  S   0ZG E   1       0.198   0.720  19.416  1.00 18.07     0.282 S 
HETATM   22  O2S 0ZG E   1       0.232   1.749  18.293  1.00 18.65    -0.199 OA
HETATM   23  O1S 0ZG E   1      -1.195   0.172  19.683  1.00 18.26    -0.199 OA
BRANCH  21  24
HETATM   24  C1  0ZG E   1       1.237  -0.702  19.029  1.00 19.32     0.105 A 
HETATM   25  C6  0ZG E   1       2.576  -0.749  19.384  1.00 19.98     0.013 A 
HETATM   26  C5  0ZG E   1       3.266  -1.936  19.205  1.00 20.90    -0.004 A 
HETATM   27  C4  0ZG E   1       2.605  -3.041  18.667  1.00 21.71    -0.022 A 
HETATM   28  C   0ZG E   1       3.330  -4.379  18.498  1.00 22.51     0.031 C 
HETATM   29  C3  0ZG E   1       1.280  -2.970  18.279  1.00 21.05    -0.004 A 
HETATM   30  C2  0ZG E   1       0.599  -1.793  18.461  1.00 20.33     0.013 A 
ENDBRANCH  21  24
ENDBRANCH  20  21
ENDBRANCH   1  20
TORSDOF 7
ENDMDL
MODEL 8
REMARK VINA RESULT:      -6.0      3.374      6.167
REMARK  7 active torsions:
REMARK  status: ('A' for Active; 'I' for Inactive)
REMARK    1  A    between atoms: S_1  and  C1_4 
REMARK    2  A    between atoms: S_1  and  N_17 
REMARK       I    between atoms: N1_11  and  C7_19 
REMARK    3  A    between atoms: N_17  and  CA_18 
REMARK    4  A    between atoms: CA_18  and  CB_21 
REMARK    5  A    between atoms: CA_18  and  C7_19 
REMARK    6  A    between atoms: CB_21  and  CG_22 
REMARK    7  A    between atoms: CE1_25  and  CF_28 
ROOT
HETATM    1  CA  0ZG E   1      -0.075  -4.387  16.020  1.00 14.15     0.198 C 
ENDROOT
BRANCH   1   2
HETATM    2  CB  0ZG E   1      -0.426  -5.881  15.902  1.00 12.21     0.061 C 
BRANCH   2   3
HETATM    3  CG  0ZG E   1      -1.351  -6.275  14.744  1.00 10.71    -0.020 A 
HETATM    4  CD2 0ZG E   1      -0.871  -7.015  13.681  1.00  9.73    -0.004 A 
HETATM    5  CE2 0ZG E   1      -1.736  -7.384  12.678  1.00  9.59    -0.000 A 
HETATM    6  CZ  0ZG E   1      -3.073  -7.041  12.703  1.00  9.52     0.003 A 
HETATM    7  CE1 0ZG E   1      -3.591  -6.297  13.766  1.00  9.60     0.039 A 
HETATM    8  CD1 0ZG E   1      -2.691  -5.939  14.751  1.00  9.96    -0.001 A 
BRANCH   7   9
HETATM    9  CF  0ZG E   1      -4.952  -5.955  13.829  1.00  9.03     0.205 C 
HETATM   10  NG2 0ZG E   1      -5.625  -6.068  14.991  1.00  9.25    -0.125 N 
HETATM   11  NG1 0ZG E   1      -5.565  -5.496  12.723  1.00  8.04    -0.125 N 
ENDBRANCH   7   9
ENDBRANCH   2   3
ENDBRANCH   1   2
BRANCH   1  12
HETATM   12  C7  0ZG E   1       1.065  -4.167  17.037  1.00 13.65     0.257 C 
HETATM   13  N1  0ZG E   1       1.038  -3.117  17.879  1.00 13.52    -0.319 N 
HETATM   14  C21 0ZG E   1      -0.074  -2.165  17.969  1.00 13.23     0.104 C 
HETATM   15  C61 0ZG E   1       2.014  -2.980  18.946  1.00 13.12     0.104 C 
HETATM   16  C31 0ZG E   1       0.540  -0.789  17.830  1.00 12.92     0.024 C 
HETATM   17  C41 0ZG E   1       1.655  -0.609  18.850  1.00 12.86     0.004 C 
HETATM   18  C51 0ZG E   1       2.711  -1.671  18.700  1.00 12.95     0.024 C 
HETATM   19  O   0ZG E   1       1.979  -5.007  17.093  1.00 12.79    -0.270 OA
ENDBRANCH   1  12
BRANCH   1  20
HETATM   20  N   0ZG E   1       0.249  -3.864  14.694  1.00 16.26    -0.177 NA
BRANCH  20  21
HETATM   21  S   0ZG E   1      -0.518  -2.468  14.134  1.00 18.07     0.282 S 
HETATM   22  O2S 0ZG E   1       0.418  -1.288  14.364  1.00 18.65    -0.199 OA
HETATM   23  O1S 0ZG E   1      -1.831  -2.347  14.891  1.00 18.26    -0.199 OA
BRANCH  21  24
HETATM   24  C1  0ZG E   1      -0.950  -2.626  12.391  1.00 19.32     0.105 A 
HETATM   25  C6  0ZG E   1      -0.367  -1.833  11.416  1.00 19.98     0.013 A 
HETATM   26  C5  0ZG E   1      -0.622  -2.124  10.086  1.00 20.90    -0.004 A 
HETATM   27  C4  0ZG E   1      -1.460  -3.192   9.765  1.00 21.71    -0.022 A 
HETATM   28  C   0ZG E   1      -1.726  -3.564   8.304  1.00 22.51     0.031 C 
HETATM   29  C3  0ZG E   1      -2.070  -3.951  10.746  1.00 21.05    -0.004 A 
HETATM   30  C2  0ZG E   1      -1.812  -3.661  12.063  1.00 20.33     0.013 A 
ENDBRANCH  21  24
ENDBRANCH  20  21
ENDBRANCH   1  20
TORSDOF 7
ENDMDL
MODEL 9
REMARK VINA RESULT:      -6.0     10.333     13.591
REMARK  7 active torsions:
REMARK  status: ('A' for Active; 'I' for Inactive)
REMARK    1  A    between atoms: S_1  and  C1_4 
REMARK    2  A    between atoms: S_1  and  N_17 
REMARK       I    between atoms: N1_11  and  C7_19 
REMARK    3  A    between atoms: N_17  and  CA_18 
REMARK    4  A    between atoms: CA_18  and  CB_21 
REMARK    5  A    between atoms: CA_18  and  C7_19 
REMARK    6  A    between atoms: CB_21  and  CG_22 
REMARK    7  A    between atoms: CE1_25  and  CF_28 
ROOT
HETATM    1  CA  0ZG E   1      -0.612   2.460  21.419  1.00 14.15     0.198 C 
ENDROOT
BRANCH   1   2
HETATM    2  CB  0ZG E   1      -1.637   2.673  20.290  1.00 12.21     0.061 C 
BRANCH   2   3
HETATM    3  CG  0ZG E   1      -2.536   3.910  20.411  1.00 10.71    -0.020 A 
HETATM    4  CD2 0ZG E   1      -3.825   3.798  20.896  1.00  9.73    -0.004 A 
HETATM    5  CE2 0ZG E   1      -4.591   4.932  21.027  1.00  9.59    -0.000 A 
HETATM    6  CZ  0ZG E   1      -4.110   6.181  20.692  1.00  9.52     0.003 A 
HETATM    7  CE1 0ZG E   1      -2.810   6.330  20.202  1.00  9.60     0.039 A 
HETATM    8  CD1 0ZG E   1      -2.073   5.168  20.079  1.00  9.96    -0.001 A 
BRANCH   7   9
HETATM    9  CF  0ZG E   1      -2.287   7.593  19.877  1.00  9.03     0.205 C 
HETATM   10  NG2 0ZG E   1      -3.108   8.654  19.757  1.00  9.25    -0.125 N 
HETATM   11  NG1 0ZG E   1      -0.959   7.729  19.711  1.00  8.04    -0.125 N 
ENDBRANCH   7   9
ENDBRANCH   2   3
ENDBRANCH   1   2
BRANCH   1  12
HETATM   12  C7  0ZG E   1      -1.279   1.827  22.658  1.00 13.65     0.257 C 
HETATM   13  N1  0ZG E   1      -0.870   2.154  23.899  1.00 13.52    -0.319 N 
HETATM   14  C21 0ZG E   1       0.151   3.167  24.186  1.00 13.23     0.104 C 
HETATM   15  C61 0ZG E   1      -1.587   1.695  25.075  1.00 13.12     0.104 C 
HETATM   16  C31 0ZG E   1       1.165   2.496  25.085  1.00 12.92     0.024 C 
HETATM   17  C41 0ZG E   1       0.471   1.890  26.295  1.00 12.86     0.004 C 
HETATM   18  C51 0ZG E   1      -0.592   0.907  25.881  1.00 12.95     0.024 C 
HETATM   19  O   0ZG E   1      -2.234   1.050  22.485  1.00 12.79    -0.270 OA
ENDBRANCH   1  12
BRANCH   1  20
HETATM   20  N   0ZG E   1       0.500   1.657  20.911  1.00 16.26    -0.177 NA
BRANCH  20  21
HETATM   21  S   0ZG E   1       0.272   0.668  19.562  1.00 18.07     0.282 S 
HETATM   22  O2S 0ZG E   1       0.208   1.558  18.327  1.00 18.65    -0.199 OA
HETATM   23  O1S 0ZG E   1      -1.007  -0.121  19.799  1.00 18.26    -0.199 OA
BRANCH  21  24
HETATM   24  C1  0ZG E   1       1.598  -0.546  19.422  1.00 19.32     0.105 A 
HETATM   25  C6  0ZG E   1       2.605  -0.644  20.370  1.00 19.98     0.013 A 
HETATM   26  C5  0ZG E   1       3.491  -1.705  20.286  1.00 20.90    -0.004 A 
HETATM   27  C4  0ZG E   1       3.355  -2.634  19.254  1.00 21.71    -0.022 A 
HETATM   28  C   0ZG E   1       4.292  -3.841  19.161  1.00 22.51     0.031 C 
HETATM   29  C3  0ZG E   1       2.371  -2.504  18.292  1.00 21.05    -0.004 A 
HETATM   30  C2  0ZG E   1       1.493  -1.453  18.379  1.00 20.33     0.013 A 
ENDBRANCH  21  24
ENDBRANCH  20  21
ENDBRANCH   1  20
TORSDOF 7
ENDMDL
