REMARK VINA RESULT:      -6.1      2.431      6.672
REMARK  15 active torsions:
REMARK  status: ('A' for Active; 'I' for Inactive)
REMARK    1  A    between atoms: N_1  and  CA_2 
REMARK       I    between atoms: N_1  and  C1_18 
REMARK    2  A    between atoms: CA_2  and  CB_5 
REMARK    3  A    between atoms: CA_2  and  C_3 
REMARK       I    between atoms: C_3  and  N3_23 
REMARK    4  A    between atoms: CB_5  and  CG_6 
REMARK    5  A    between atoms: CG_6  and  CD_7 
REMARK    6  A    between atoms: CD_7  and  NE_8 
REMARK    7  A    between atoms: C1'_17  and  C'_34 
REMARK    8  A    between atoms: C1_18  and  O2_21 
REMARK    9  A    between atoms: C2_20  and  C3_22 
REMARK   10  A    between atoms: C2_20  and  O2_21 
REMARK   11  A    between atoms: N3_23  and  C31_32 
REMARK   12  A    between atoms: C21_30  and  C31_32 
REMARK   13  A    between atoms: C31_32  and  C41_33 
REMARK   14  A    between atoms: C41_33  and  O'_35 
REMARK   15  A    between atoms: C'_34  and  O'_35 
ROOT
HETATM    1  CA  0E6 A 901      13.810  62.929  43.589  1.00  5.33     0.189 C 
ENDROOT
BRANCH   1   2
HETATM    2  CB  0E6 A 901      13.842  62.091  42.301  1.00  2.00     0.036 C 
BRANCH   2   3
HETATM    3  CG  0E6 A 901      14.374  60.654  42.493  1.00 26.32     0.029 C 
BRANCH   3   4
HETATM    4  CD  0E6 A 901      15.271  60.201  41.374  1.00 10.60     0.145 C 
BRANCH   4   5
HETATM    5  NE  0E6 A 901      16.495  60.973  41.281  1.00 55.91    -0.083 NA
HETATM    6  CZ  0E6 A 901      17.489  60.722  40.437  1.00 23.07     0.782 C 
HETATM    7  NH2 0E6 A 901      18.693  60.554  40.957  1.00 25.22     0.063 N 
HETATM    8  NH1 0E6 A 901      17.443  61.217  39.216  1.00 33.86     0.063 N 
ENDBRANCH   4   5
ENDBRANCH   3   4
ENDBRANCH   2   3
ENDBRANCH   1   2
BRANCH   1   9
HETATM    9  C   0E6 A 901      14.676  64.209  43.485  1.00  2.00     0.274 C 
HETATM   10  O   0E6 A 901      14.297  65.288  43.954  1.00 15.24    -0.268 OA
HETATM   11  N3  0E6 A 901      15.870  64.068  42.940  1.00 12.40    -0.228 NA
BRANCH  11  12
HETATM   12  C31 0E6 A 901      16.748  65.222  42.840  1.00  8.31     0.193 C 
BRANCH  12  13
HETATM   13  C21 0E6 A 901      16.855  65.731  41.428  1.00 12.89     0.176 C 
HETATM   14  O21 0E6 A 901      17.347  66.842  41.222  1.00 16.29    -0.294 OA
HETATM   15  C11 0E6 A 901      16.999  64.654  40.414  1.00  2.00     0.074 C 
ENDBRANCH  12  13
BRANCH  12  16
HETATM   16  C41 0E6 A 901      18.145  64.880  43.309  1.00  4.55     0.175 C 
BRANCH  16  17
HETATM   17  O'  0E6 A 901      17.992  64.664  44.708  1.00 23.29    -0.347 OA
BRANCH  17  18
HETATM   18  C'  0E6 A 901      18.762  63.519  45.057  1.00 16.34     0.169 C 
BRANCH  18  19
HETATM   19  C1' 0E6 A 901      17.962  62.251  45.184  1.00 15.52     0.007 A 
HETATM   20  C2' 0E6 A 901      16.796  62.223  45.943  1.00 21.99    -0.002 A 
HETATM   21  C3' 0E6 A 901      16.031  61.081  46.046  1.00 81.25    -0.000 A 
HETATM   22  C4' 0E6 A 901      16.420  59.938  45.387  1.00 24.94     0.000 A 
HETATM   23  C5' 0E6 A 901      17.592  59.934  44.634  1.00 21.89    -0.000 A 
HETATM   24  C6' 0E6 A 901      18.361  61.096  44.539  1.00 24.39    -0.002 A 
ENDBRANCH  18  19
ENDBRANCH  17  18
ENDBRANCH  16  17
ENDBRANCH  12  16
ENDBRANCH  11  12
ENDBRANCH   1   9
BRANCH   1  25
HETATM   25  N   0E6 A 901      12.459  63.281  43.910  1.00 10.44    -0.205 NA
HETATM   26  C1  0E6 A 901      12.019  63.076  45.143  1.00  5.70     0.384 C 
HETATM   27  O1  0E6 A 901      12.783  62.769  46.061  1.00 17.07    -0.236 OA
BRANCH  26  28
HETATM   28  O2  0E6 A 901      10.585  63.327  45.377  1.00  2.00    -0.279 OA
BRANCH  28  29
HETATM   29  C2  0E6 A 901      10.116  62.815  46.696  1.00  6.10     0.180 C 
BRANCH  29  30
HETATM   30  C3  0E6 A 901       9.041  61.765  46.580  1.00  8.83     0.008 A 
HETATM   31  C4  0E6 A 901       9.079  60.829  45.556  1.00  8.37    -0.002 A 
HETATM   32  C5  0E6 A 901       8.169  59.786  45.484  1.00 13.12    -0.000 A 
HETATM   33  C6  0E6 A 901       7.184  59.682  46.421  1.00  3.59     0.000 A 
HETATM   34  C7  0E6 A 901       7.099  60.638  47.442  1.00 23.62    -0.000 A 
HETATM   35  C8  0E6 A 901       8.038  61.674  47.515  1.00 12.57    -0.002 A 
ENDBRANCH  29  30
ENDBRANCH  28  29
ENDBRANCH  26  28
ENDBRANCH   1  25
TORSDOF 15
