REMARK VINA RESULT:      -6.5      3.237      5.512
REMARK  15 active torsions:
REMARK  status: ('A' for Active; 'I' for Inactive)
REMARK    1  A    between atoms: N_1  and  CA_2 
REMARK       I    between atoms: N_1  and  C1_18 
REMARK    2  A    between atoms: CA_2  and  CB_5 
REMARK    3  A    between atoms: CA_2  and  C_3 
REMARK       I    between atoms: C_3  and  N3_23 
REMARK    4  A    between atoms: CB_5  and  CG_6 
REMARK    5  A    between atoms: CG_6  and  CD_7 
REMARK    6  A    between atoms: CD_7  and  NE_8 
REMARK    7  A    between atoms: C1'_17  and  C'_34 
REMARK    8  A    between atoms: C1_18  and  O2_21 
REMARK    9  A    between atoms: C2_20  and  C3_22 
REMARK   10  A    between atoms: C2_20  and  O2_21 
REMARK   11  A    between atoms: N3_23  and  C31_32 
REMARK   12  A    between atoms: C21_30  and  C31_32 
REMARK   13  A    between atoms: C31_32  and  C41_33 
REMARK   14  A    between atoms: C41_33  and  O'_35 
REMARK   15  A    between atoms: C'_34  and  O'_35 
ROOT
HETATM    1  CA  0E6 A 901      16.653  64.427  40.778  1.00  5.33     0.189 C 
ENDROOT
BRANCH   1   2
HETATM    2  CB  0E6 A 901      16.842  65.917  41.102  1.00  2.00     0.036 C 
BRANCH   2   3
HETATM    3  CG  0E6 A 901      16.043  66.404  42.331  1.00 26.32     0.029 C 
BRANCH   3   4
HETATM    4  CD  0E6 A 901      16.882  67.177  43.312  1.00 10.60     0.145 C 
BRANCH   4   5
HETATM    5  NE  0E6 A 901      16.439  68.547  43.481  1.00 55.91    -0.083 NA
HETATM    6  CZ  0E6 A 901      16.426  69.205  44.635  1.00 23.07     0.782 C 
HETATM    7  NH2 0E6 A 901      15.274  69.731  45.016  1.00 25.22     0.063 N 
HETATM    8  NH1 0E6 A 901      17.516  69.828  45.038  1.00 33.86     0.063 N 
ENDBRANCH   4   5
ENDBRANCH   3   4
ENDBRANCH   2   3
ENDBRANCH   1   2
BRANCH   1   9
HETATM    9  C   0E6 A 901      17.729  63.891  39.802  1.00  2.00     0.274 C 
HETATM   10  O   0E6 A 901      17.647  64.074  38.582  1.00 15.24    -0.268 OA
HETATM   11  N3  0E6 A 901      18.774  63.298  40.348  1.00 12.40    -0.228 NA
BRANCH  11  12
HETATM   12  C31 0E6 A 901      19.838  62.799  39.492  1.00  8.31     0.193 C 
BRANCH  12  13
HETATM   13  C21 0E6 A 901      19.845  61.296  39.416  1.00 12.89     0.176 C 
HETATM   14  O21 0E6 A 901      18.781  60.695  39.259  1.00 16.29    -0.294 OA
HETATM   15  C11 0E6 A 901      21.106  60.731  38.870  1.00  2.00     0.074 C 
ENDBRANCH  12  13
BRANCH  12  16
HETATM   16  C41 0E6 A 901      21.192  63.237  40.003  1.00  4.55     0.175 C 
BRANCH  16  17
HETATM   17  O'  0E6 A 901      20.944  63.609  41.355  1.00 23.29    -0.347 OA
BRANCH  17  18
HETATM   18  C'  0E6 A 901      21.724  62.759  42.189  1.00 16.34     0.169 C 
BRANCH  18  19
HETATM   19  C1' 0E6 A 901      21.061  62.392  43.489  1.00 15.52     0.007 A 
HETATM   20  C2' 0E6 A 901      19.795  62.878  43.800  1.00 21.99    -0.002 A 
HETATM   21  C3' 0E6 A 901      19.156  62.528  44.970  1.00 81.25    -0.000 A 
HETATM   22  C4' 0E6 A 901      19.776  61.679  45.857  1.00 24.94     0.000 A 
HETATM   23  C5' 0E6 A 901      21.051  61.192  45.579  1.00 21.89    -0.000 A 
HETATM   24  C6' 0E6 A 901      21.690  61.555  44.391  1.00 24.39    -0.002 A 
ENDBRANCH  18  19
ENDBRANCH  17  18
ENDBRANCH  16  17
ENDBRANCH  12  16
ENDBRANCH  11  12
ENDBRANCH   1   9
BRANCH   1  25
HETATM   25  N   0E6 A 901      16.667  63.658  41.987  1.00 10.44    -0.205 NA
HETATM   26  C1  0E6 A 901      15.734  62.735  42.170  1.00  5.70     0.384 C 
HETATM   27  O1  0E6 A 901      14.974  62.392  41.261  1.00 17.07    -0.236 OA
BRANCH  26  28
HETATM   28  O2  0E6 A 901      15.716  62.074  43.488  1.00  2.00    -0.279 OA
BRANCH  28  29
HETATM   29  C2  0E6 A 901      15.514  60.600  43.394  1.00  6.10     0.180 C 
BRANCH  29  30
HETATM   30  C3  0E6 A 901      16.791  59.813  43.540  1.00  8.83     0.008 A 
HETATM   31  C4  0E6 A 901      17.847  60.017  42.664  1.00  8.37    -0.002 A 
HETATM   32  C5  0E6 A 901      19.072  59.390  42.835  1.00 13.12    -0.000 A 
HETATM   33  C6  0E6 A 901      19.249  58.523  43.871  1.00  3.59     0.000 A 
HETATM   34  C7  0E6 A 901      18.184  58.268  44.747  1.00 23.62    -0.000 A 
HETATM   35  C8  0E6 A 901      16.960  58.924  44.575  1.00 12.57    -0.002 A 
ENDBRANCH  29  30
ENDBRANCH  28  29
ENDBRANCH  26  28
ENDBRANCH   1  25
TORSDOF 15
