REMARK VINA RESULT:      -6.7      2.214      4.598
REMARK  15 active torsions:
REMARK  status: ('A' for Active; 'I' for Inactive)
REMARK    1  A    between atoms: N_1  and  CA_2 
REMARK       I    between atoms: N_1  and  C1_18 
REMARK    2  A    between atoms: CA_2  and  CB_5 
REMARK    3  A    between atoms: CA_2  and  C_3 
REMARK       I    between atoms: C_3  and  N3_23 
REMARK    4  A    between atoms: CB_5  and  CG_6 
REMARK    5  A    between atoms: CG_6  and  CD_7 
REMARK    6  A    between atoms: CD_7  and  NE_8 
REMARK    7  A    between atoms: C1'_17  and  C'_34 
REMARK    8  A    between atoms: C1_18  and  O2_21 
REMARK    9  A    between atoms: C2_20  and  C3_22 
REMARK   10  A    between atoms: C2_20  and  O2_21 
REMARK   11  A    between atoms: N3_23  and  C31_32 
REMARK   12  A    between atoms: C21_30  and  C31_32 
REMARK   13  A    between atoms: C31_32  and  C41_33 
REMARK   14  A    between atoms: C41_33  and  O'_35 
REMARK   15  A    between atoms: C'_34  and  O'_35 
ROOT
HETATM    1  CA  0E6 A 901      16.545  63.999  41.016  1.00  5.33     0.189 C 
ENDROOT
BRANCH   1   2
HETATM    2  CB  0E6 A 901      16.609  65.422  41.590  1.00  2.00     0.036 C 
BRANCH   2   3
HETATM    3  CG  0E6 A 901      16.394  65.500  43.118  1.00 26.32     0.029 C 
BRANCH   3   4
HETATM    4  CD  0E6 A 901      14.971  65.800  43.500  1.00 10.60     0.145 C 
BRANCH   4   5
HETATM    5  NE  0E6 A 901      14.376  64.767  44.326  1.00 55.91    -0.083 NA
HETATM    6  CZ  0E6 A 901      13.076  64.501  44.391  1.00 23.07     0.782 C 
HETATM    7  NH2 0E6 A 901      12.515  64.527  45.588  1.00 25.22     0.063 N 
HETATM    8  NH1 0E6 A 901      12.537  63.683  43.509  1.00 33.86     0.063 N 
ENDBRANCH   4   5
ENDBRANCH   3   4
ENDBRANCH   2   3
ENDBRANCH   1   2
BRANCH   1   9
HETATM    9  C   0E6 A 901      17.745  63.677  40.091  1.00  2.00     0.274 C 
HETATM   10  O   0E6 A 901      17.770  64.044  38.911  1.00 15.24    -0.268 OA
HETATM   11  N3  0E6 A 901      18.769  63.062  40.650  1.00 12.40    -0.228 NA
BRANCH  11  12
HETATM   12  C31 0E6 A 901      19.943  62.758  39.847  1.00  8.31     0.193 C 
BRANCH  12  13
HETATM   13  C21 0E6 A 901      20.079  61.284  39.579  1.00 12.89     0.176 C 
HETATM   14  O21 0E6 A 901      19.064  60.588  39.502  1.00 16.29    -0.294 OA
HETATM   15  C11 0E6 A 901      21.286  60.929  38.789  1.00  2.00     0.074 C 
ENDBRANCH  12  13
BRANCH  12  16
HETATM   16  C41 0E6 A 901      21.206  63.214  40.543  1.00  4.55     0.175 C 
BRANCH  16  17
HETATM   17  O'  0E6 A 901      21.230  62.450  41.744  1.00 23.29    -0.347 OA
BRANCH  17  18
HETATM   18  C'  0E6 A 901      21.134  63.357  42.838  1.00 16.34     0.169 C 
BRANCH  18  19
HETATM   19  C1' 0E6 A 901      20.446  62.791  44.050  1.00 15.52     0.007 A 
HETATM   20  C2' 0E6 A 901      19.089  63.013  44.262  1.00 21.99    -0.002 A 
HETATM   21  C3' 0E6 A 901      18.432  62.477  45.349  1.00 81.25    -0.000 A 
HETATM   22  C4' 0E6 A 901      19.126  61.703  46.251  1.00 24.94     0.000 A 
HETATM   23  C5' 0E6 A 901      20.489  61.480  46.072  1.00 21.89    -0.000 A 
HETATM   24  C6' 0E6 A 901      21.145  62.030  44.969  1.00 24.39    -0.002 A 
ENDBRANCH  18  19
ENDBRANCH  17  18
ENDBRANCH  16  17
ENDBRANCH  12  16
ENDBRANCH  11  12
ENDBRANCH   1   9
BRANCH   1  25
HETATM   25  N   0E6 A 901      16.485  63.044  42.083  1.00 10.44    -0.205 NA
HETATM   26  C1  0E6 A 901      15.436  62.238  42.163  1.00  5.70     0.384 C 
HETATM   27  O1  0E6 A 901      14.609  62.158  41.252  1.00 17.07    -0.236 OA
BRANCH  26  28
HETATM   28  O2  0E6 A 901      15.363  61.375  43.357  1.00  2.00    -0.279 OA
BRANCH  28  29
HETATM   29  C2  0E6 A 901      15.533  59.929  43.038  1.00  6.10     0.180 C 
BRANCH  29  30
HETATM   30  C3  0E6 A 901      16.907  59.404  43.365  1.00  8.83     0.008 A 
HETATM   31  C4  0E6 A 901      18.022  59.885  42.694  1.00  8.37    -0.002 A 
HETATM   32  C5  0E6 A 901      19.308  59.504  43.044  1.00 13.12    -0.000 A 
HETATM   33  C6  0E6 A 901      19.496  58.607  44.054  1.00  3.59     0.000 A 
HETATM   34  C7  0E6 A 901      18.384  58.075  44.720  1.00 23.62    -0.000 A 
HETATM   35  C8  0E6 A 901      17.092  58.485  44.370  1.00 12.57    -0.002 A 
ENDBRANCH  29  30
ENDBRANCH  28  29
ENDBRANCH  26  28
ENDBRANCH   1  25
TORSDOF 15
