REMARK VINA RESULT:      -7.2      0.000      0.000
REMARK  15 active torsions:
REMARK  status: ('A' for Active; 'I' for Inactive)
REMARK    1  A    between atoms: N_1  and  CA_2 
REMARK       I    between atoms: N_1  and  C1_18 
REMARK    2  A    between atoms: CA_2  and  CB_5 
REMARK    3  A    between atoms: CA_2  and  C_3 
REMARK       I    between atoms: C_3  and  N3_23 
REMARK    4  A    between atoms: CB_5  and  CG_6 
REMARK    5  A    between atoms: CG_6  and  CD_7 
REMARK    6  A    between atoms: CD_7  and  NE_8 
REMARK    7  A    between atoms: C1'_17  and  C'_34 
REMARK    8  A    between atoms: C1_18  and  O2_21 
REMARK    9  A    between atoms: C2_20  and  C3_22 
REMARK   10  A    between atoms: C2_20  and  O2_21 
REMARK   11  A    between atoms: N3_23  and  C31_32 
REMARK   12  A    between atoms: C21_30  and  C31_32 
REMARK   13  A    between atoms: C31_32  and  C41_33 
REMARK   14  A    between atoms: C41_33  and  O'_35 
REMARK   15  A    between atoms: C'_34  and  O'_35 
ROOT
HETATM    1  CA  0E6 A 901      17.400  63.248  40.096  1.00  5.33     0.189 C 
ENDROOT
BRANCH   1   2
HETATM    2  CB  0E6 A 901      17.827  63.088  38.629  1.00  2.00     0.036 C 
BRANCH   2   3
HETATM    3  CG  0E6 A 901      19.326  62.767  38.436  1.00 26.32     0.029 C 
BRANCH   3   4
HETATM    4  CD  0E6 A 901      20.135  62.953  39.690  1.00 10.60     0.145 C 
BRANCH   4   5
HETATM    5  NE  0E6 A 901      21.551  63.134  39.430  1.00 55.91    -0.083 NA
HETATM    6  CZ  0E6 A 901      22.492  62.234  39.689  1.00 23.07     0.782 C 
HETATM    7  NH2 0E6 A 901      23.499  62.619  40.455  1.00 25.22     0.063 N 
HETATM    8  NH1 0E6 A 901      22.758  61.299  38.799  1.00 33.86     0.063 N 
ENDBRANCH   4   5
ENDBRANCH   3   4
ENDBRANCH   2   3
ENDBRANCH   1   2
BRANCH   1   9
HETATM    9  C   0E6 A 901      17.027  64.708  40.450  1.00  2.00     0.274 C 
HETATM   10  O   0E6 A 901      16.899  65.575  39.578  1.00 15.24    -0.268 OA
HETATM   11  N3  0E6 A 901      16.777  64.959  41.722  1.00 12.40    -0.228 NA
BRANCH  11  12
HETATM   12  C31 0E6 A 901      16.389  66.303  42.120  1.00  8.31     0.193 C 
BRANCH  12  13
HETATM   13  C21 0E6 A 901      17.517  67.042  42.788  1.00 12.89     0.176 C 
HETATM   14  O21 0E6 A 901      18.526  67.319  42.136  1.00 16.29    -0.294 OA
HETATM   15  C11 0E6 A 901      17.077  67.934  43.891  1.00  2.00     0.074 C 
ENDBRANCH  12  13
BRANCH  12  16
HETATM   16  C41 0E6 A 901      15.230  66.265  43.091  1.00  4.55     0.175 C 
BRANCH  16  17
HETATM   17  O'  0E6 A 901      15.189  64.908  43.522  1.00 23.29    -0.347 OA
BRANCH  17  18
HETATM   18  C'  0E6 A 901      14.700  64.891  44.858  1.00 16.34     0.169 C 
BRANCH  18  19
HETATM   19  C1' 0E6 A 901      13.400  64.152  45.031  1.00 15.52     0.007 A 
HETATM   20  C2' 0E6 A 901      12.980  63.745  46.293  1.00 21.99    -0.002 A 
HETATM   21  C3' 0E6 A 901      11.778  63.095  46.477  1.00 81.25    -0.000 A 
HETATM   22  C4' 0E6 A 901      10.969  62.839  45.395  1.00 24.94     0.000 A 
HETATM   23  C5' 0E6 A 901      11.374  63.220  44.118  1.00 21.89    -0.000 A 
HETATM   24  C6' 0E6 A 901      12.595  63.875  43.942  1.00 24.39    -0.002 A 
ENDBRANCH  18  19
ENDBRANCH  17  18
ENDBRANCH  16  17
ENDBRANCH  12  16
ENDBRANCH  11  12
ENDBRANCH   1   9
BRANCH   1  25
HETATM   25  N   0E6 A 901      16.294  62.382  40.380  1.00 10.44    -0.205 NA
HETATM   26  C1  0E6 A 901      16.533  61.110  40.666  1.00  5.70     0.384 C 
HETATM   27  O1  0E6 A 901      17.676  60.697  40.876  1.00 17.07    -0.236 OA
BRANCH  26  28
HETATM   28  O2  0E6 A 901      15.353  60.238  40.811  1.00  2.00    -0.279 OA
BRANCH  28  29
HETATM   29  C2  0E6 A 901      14.530  60.572  42.008  1.00  6.10     0.180 C 
BRANCH  29  30
HETATM   30  C3  0E6 A 901      15.178  60.171  43.308  1.00  8.83     0.008 A 
HETATM   31  C4  0E6 A 901      15.206  61.050  44.382  1.00  8.37    -0.002 A 
HETATM   32  C5  0E6 A 901      15.696  60.675  45.623  1.00 13.12    -0.000 A 
HETATM   33  C6  0E6 A 901      16.197  59.419  45.801  1.00  3.59     0.000 A 
HETATM   34  C7  0E6 A 901      16.218  58.526  44.721  1.00 23.62    -0.000 A 
HETATM   35  C8  0E6 A 901      15.700  58.911  43.479  1.00 12.57    -0.002 A 
ENDBRANCH  29  30
ENDBRANCH  28  29
ENDBRANCH  26  28
ENDBRANCH   1  25
TORSDOF 15
