REMARK VINA RESULT:      -6.6      2.892      6.456
REMARK  15 active torsions:
REMARK  status: ('A' for Active; 'I' for Inactive)
REMARK    1  A    between atoms: N_1  and  CA_2 
REMARK       I    between atoms: N_1  and  C1_18 
REMARK    2  A    between atoms: CA_2  and  CB_5 
REMARK    3  A    between atoms: CA_2  and  C_3 
REMARK       I    between atoms: C_3  and  N3_23 
REMARK    4  A    between atoms: CB_5  and  CG_6 
REMARK    5  A    between atoms: CG_6  and  CD_7 
REMARK    6  A    between atoms: CD_7  and  NE_8 
REMARK    7  A    between atoms: C1'_17  and  C'_34 
REMARK    8  A    between atoms: C1_18  and  O2_21 
REMARK    9  A    between atoms: C2_20  and  C3_22 
REMARK   10  A    between atoms: C2_20  and  O2_21 
REMARK   11  A    between atoms: N3_23  and  C31_32 
REMARK   12  A    between atoms: C21_30  and  C31_32 
REMARK   13  A    between atoms: C31_32  and  C41_33 
REMARK   14  A    between atoms: C41_33  and  O'_35 
REMARK   15  A    between atoms: C'_34  and  O'_35 
ROOT
HETATM    1  CA  0E6 A 901      16.776  64.469  40.802  1.00  5.33     0.189 C 
ENDROOT
BRANCH   1   2
HETATM    2  CB  0E6 A 901      17.216  65.844  41.327  1.00  2.00     0.036 C 
BRANCH   2   3
HETATM    3  CG  0E6 A 901      16.125  66.599  42.118  1.00 26.32     0.029 C 
BRANCH   3   4
HETATM    4  CD  0E6 A 901      16.481  66.808  43.565  1.00 10.60     0.145 C 
BRANCH   4   5
HETATM    5  NE  0E6 A 901      16.111  65.686  44.407  1.00 55.91    -0.083 NA
HETATM    6  CZ  0E6 A 901      14.910  65.503  44.942  1.00 23.07     0.782 C 
HETATM    7  NH2 0E6 A 901      14.852  65.353  46.255  1.00 25.22     0.063 N 
HETATM    8  NH1 0E6 A 901      13.974  64.894  44.242  1.00 33.86     0.063 N 
ENDBRANCH   4   5
ENDBRANCH   3   4
ENDBRANCH   2   3
ENDBRANCH   1   2
BRANCH   1   9
HETATM    9  C   0E6 A 901      17.767  63.885  39.766  1.00  2.00     0.274 C 
HETATM   10  O   0E6 A 901      17.648  64.110  38.556  1.00 15.24    -0.268 OA
HETATM   11  N3  0E6 A 901      18.787  63.201  40.249  1.00 12.40    -0.228 NA
BRANCH  11  12
HETATM   12  C31 0E6 A 901      19.774  62.652  39.334  1.00  8.31     0.193 C 
BRANCH  12  13
HETATM   13  C21 0E6 A 901      19.653  61.158  39.201  1.00 12.89     0.176 C 
HETATM   14  O21 0E6 A 901      20.671  60.480  39.053  1.00 16.29    -0.294 OA
HETATM   15  C11 0E6 A 901      18.477  60.589  39.909  1.00  2.00     0.074 C 
ENDBRANCH  12  13
BRANCH  12  16
HETATM   16  C41 0E6 A 901      21.178  62.955  39.807  1.00  4.55     0.175 C 
BRANCH  16  17
HETATM   17  O'  0E6 A 901      21.006  63.327  41.171  1.00 23.29    -0.347 OA
BRANCH  17  18
HETATM   18  C'  0E6 A 901      21.802  62.452  41.963  1.00 16.34     0.169 C 
BRANCH  18  19
HETATM   19  C1' 0E6 A 901      21.316  62.286  43.378  1.00 15.52     0.007 A 
HETATM   20  C2' 0E6 A 901      20.387  63.171  43.916  1.00 21.99    -0.002 A 
HETATM   21  C3' 0E6 A 901      19.905  63.018  45.198  1.00 81.25    -0.000 A 
HETATM   22  C4' 0E6 A 901      20.346  61.970  45.972  1.00 24.94     0.000 A 
HETATM   23  C5' 0E6 A 901      21.289  61.079  45.464  1.00 21.89    -0.000 A 
HETATM   24  C6' 0E6 A 901      21.773  61.245  44.164  1.00 24.39    -0.002 A 
ENDBRANCH  18  19
ENDBRANCH  17  18
ENDBRANCH  16  17
ENDBRANCH  12  16
ENDBRANCH  11  12
ENDBRANCH   1   9
BRANCH   1  25
HETATM   25  N   0E6 A 901      16.622  63.556  41.896  1.00 10.44    -0.205 NA
HETATM   26  C1  0E6 A 901      15.599  62.714  41.889  1.00  5.70     0.384 C 
HETATM   27  O1  0E6 A 901      14.887  62.567  40.891  1.00 17.07    -0.236 OA
BRANCH  26  28
HETATM   28  O2  0E6 A 901      15.413  61.897  43.102  1.00  2.00    -0.279 OA
BRANCH  28  29
HETATM   29  C2  0E6 A 901      16.607  61.907  43.994  1.00  6.10     0.180 C 
BRANCH  29  30
HETATM   30  C3  0E6 A 901      17.257  60.555  44.135  1.00  8.83     0.008 A 
HETATM   31  C4  0E6 A 901      18.300  60.184  43.298  1.00  8.37    -0.002 A 
HETATM   32  C5  0E6 A 901      18.990  58.995  43.470  1.00 13.12    -0.000 A 
HETATM   33  C6  0E6 A 901      18.626  58.140  44.468  1.00  3.59     0.000 A 
HETATM   34  C7  0E6 A 901      17.549  58.472  45.302  1.00 23.62    -0.000 A 
HETATM   35  C8  0E6 A 901      16.875  59.687  45.130  1.00 12.57    -0.002 A 
ENDBRANCH  29  30
ENDBRANCH  28  29
ENDBRANCH  26  28
ENDBRANCH   1  25
TORSDOF 15
