# created with PyMOL 2.5.0
@<TRIPOS>MOLECULE
1pph
30 32 1                 
SMALL
USER_CHARGES
@<TRIPOS>ATOM
1	   N	-5.157	4.781	22.635	N.3	1	0ZG1	0.000	
2	  CA	-3.980	4.122	22.069	C.3	1	0ZG1	0.000	
3	   C	-1.782	4.141	28.386	C.3	1	0ZG1	0.000	
4	   O	-2.595	5.642	23.304	O.2	1	0ZG1	0.000	
5	  CB	-3.887	4.455	20.569	C.3	1	0ZG1	0.000	
6	  CG	-3.097	5.716	20.198	C.2	1	0ZG1	0.000	
7	 NG1	-3.057	10.451	19.320	N.pl3	1	0ZG1	0.000	
8	 NG2	-5.045	9.436	20.023	N.pl3	1	0ZG1	0.000	
9	 CD1	-3.708	6.953	20.138	C.2	1	0ZG1	0.000	
10	 CD2	-1.756	5.635	19.873	C.2	1	0ZG1	0.000	
11	 CE1	-3.070	8.122	19.770	C.2	1	0ZG1	0.000	
12	 CE2	-1.087	6.779	19.508	C.2	1	0ZG1	0.000	
13	  CZ	-1.715	8.007	19.452	C.2	1	0ZG1	0.000	
14	  C1	-4.807	4.007	25.383	C.2	1	0ZG1	0.000	
15	  N1	-1.638	3.654	22.847	N.pl3	1	0ZG1	0.000	
16	 O1S	-7.038	5.067	24.381	O.2	1	0ZG1	0.000	
17	  C2	-4.493	5.205	26.005	C.2	1	0ZG1	0.000	
18	 O2S	-6.445	2.728	23.583	O.2	1	0ZG1	0.000	
19	  C3	-3.528	5.241	26.981	C.2	1	0ZG1	0.000	
20	  C4	-2.887	4.067	27.329	C.2	1	0ZG1	0.000	
21	  C5	-3.224	2.850	26.735	C.2	1	0ZG1	0.000	
22	  C6	-4.200	2.817	25.753	C.2	1	0ZG1	0.000	
23	  C7	-2.678	4.508	22.802	C.2	1	0ZG1	0.000	
24	 C21	-1.609	2.359	22.159	C.3	1	0ZG1	0.000	
25	 C31	-1.234	1.336	23.208	C.3	1	0ZG1	0.000	
26	 C41	0.054	1.749	23.904	C.3	1	0ZG1	0.000	
27	 C51	-0.073	3.114	24.526	C.3	1	0ZG1	0.000	
28	 C61	-0.353	4.058	23.390	C.3	1	0ZG1	0.000	
29	  CF	-3.740	9.355	19.697	C.2	1	0ZG1	0.000	
30	   S	-5.930	4.107	23.976	S.o2	1	0ZG1	0.000	
@<TRIPOS>BOND
1 1 2 1
2 2 5 1
3 2 23 1
4 5 6 1
5 6 9 ar
6 6 10 ar
7 9 11 ar
8 10 12 ar
9 11 13 ar
10 11 29 1
11 12 13 ar
12 14 17 ar
13 14 22 ar
14 15 23 1
15 15 24 1
16 15 28 1
17 17 19 ar
18 19 20 ar
19 3 20 1
20 20 21 ar
21 21 22 ar
22 4 23 2
23 24 25 1
24 25 26 1
25 26 27 1
26 27 28 1
27 7 29 ar
28 8 29 ar
29 1 30 1
30 14 30 1
31 16 30 2
32 18 30 2
@<TRIPOS>SUBSTRUCTURE
1	0ZG1	1	GROUP	1 E	0ZG
