REMARK VINA RESULT:      -6.3      7.607     11.210
REMARK  7 active torsions:
REMARK  status: ('A' for Active; 'I' for Inactive)
REMARK    1  A    between atoms: S_1  and  C1_4 
REMARK    2  A    between atoms: S_1  and  N_17 
REMARK       I    between atoms: N1_11  and  C7_19 
REMARK    3  A    between atoms: N_17  and  CA_18 
REMARK    4  A    between atoms: CA_18  and  CB_21 
REMARK    5  A    between atoms: CA_18  and  C7_19 
REMARK    6  A    between atoms: CB_21  and  CG_22 
REMARK    7  A    between atoms: CE1_25  and  CF_28 
ROOT
HETATM    1  CA  0ZG E   1      -0.702   2.251  20.967  1.00 14.15     0.198 C 
ENDROOT
BRANCH   1   2
HETATM    2  CB  0ZG E   1      -1.229   3.145  19.830  1.00 12.21     0.061 C 
BRANCH   2   3
HETATM    3  CG  0ZG E   1      -2.272   4.200  20.219  1.00 10.71    -0.020 A 
HETATM    4  CD2 0ZG E   1      -3.395   3.844  20.942  1.00  9.73    -0.004 A 
HETATM    5  CE2 0ZG E   1      -4.291   4.821  21.307  1.00  9.59    -0.000 A 
HETATM    6  CZ  0ZG E   1      -4.101   6.148  20.978  1.00  9.52     0.003 A 
HETATM    7  CE1 0ZG E   1      -2.974   6.541  20.253  1.00  9.60     0.039 A 
HETATM    8  CD1 0ZG E   1      -2.099   5.532  19.898  1.00  9.96    -0.001 A 
BRANCH   7   9
HETATM    9  CF  0ZG E   1      -2.742   7.888  19.927  1.00  9.03     0.205 C 
HETATM   10  NG2 0ZG E   1      -1.502   8.301  19.599  1.00  9.25    -0.125 N 
HETATM   11  NG1 0ZG E   1      -3.776   8.749  19.925  1.00  8.04    -0.125 N 
ENDBRANCH   7   9
ENDBRANCH   2   3
ENDBRANCH   1   2
BRANCH   1  12
HETATM   12  C7  0ZG E   1       0.104   1.061  20.405  1.00 13.65     0.257 C 
HETATM   13  N1  0ZG E   1      -0.382  -0.192  20.482  1.00 13.52    -0.319 N 
HETATM   14  C21 0ZG E   1      -1.709  -0.527  21.009  1.00 13.23     0.104 C 
HETATM   15  C61 0ZG E   1       0.282  -1.301  19.820  1.00 13.12     0.104 C 
HETATM   16  C31 0ZG E   1      -1.486  -1.595  22.056  1.00 12.92     0.024 C 
HETATM   17  C41 0ZG E   1      -0.694  -2.751  21.464  1.00 12.86     0.004 C 
HETATM   18  C51 0ZG E   1       0.623  -2.283  20.906  1.00 12.95     0.024 C 
HETATM   19  O   0ZG E   1       1.184   1.293  19.837  1.00 12.79    -0.270 OA
ENDBRANCH   1  12
BRANCH   1  20
HETATM   20  N   0ZG E   1       0.080   3.067  21.896  1.00 16.26    -0.177 NA
BRANCH  20  21
HETATM   21  S   0ZG E   1      -0.032   2.784  23.556  1.00 18.07     0.282 S 
HETATM   22  O2S 0ZG E   1       1.060   3.590  24.249  1.00 18.65    -0.199 OA
HETATM   23  O1S 0ZG E   1       0.109   1.284  23.764  1.00 18.26    -0.199 OA
BRANCH  21  24
HETATM   24  C1  0ZG E   1      -1.665   3.231  24.177  1.00 19.32     0.105 A 
HETATM   25  C6  0ZG E   1      -1.978   4.529  24.548  1.00 19.98     0.013 A 
HETATM   26  C5  0ZG E   1      -3.295   4.829  24.854  1.00 20.90    -0.004 A 
HETATM   27  C4  0ZG E   1      -4.262   3.825  24.792  1.00 21.71    -0.022 A 
HETATM   28  C   0ZG E   1      -5.732   4.137  25.082  1.00 22.51     0.031 C 
HETATM   29  C3  0ZG E   1      -3.931   2.525  24.460  1.00 21.05    -0.004 A 
HETATM   30  C2  0ZG E   1      -2.625   2.231  24.154  1.00 20.33     0.013 A 
ENDBRANCH  21  24
ENDBRANCH  20  21
ENDBRANCH   1  20
TORSDOF 7
