MODEL 1
REMARK VINA RESULT:      -6.4      0.000      0.000
REMARK  7 active torsions:
REMARK  status: ('A' for Active; 'I' for Inactive)
REMARK    1  A    between atoms: S_1  and  C1_4 
REMARK    2  A    between atoms: S_1  and  N_17 
REMARK       I    between atoms: N1_11  and  C7_19 
REMARK    3  A    between atoms: N_17  and  CA_18 
REMARK    4  A    between atoms: CA_18  and  CB_21 
REMARK    5  A    between atoms: CA_18  and  C7_19 
REMARK    6  A    between atoms: CB_21  and  CG_22 
REMARK    7  A    between atoms: CE1_25  and  CF_28 
ROOT
HETATM    1  CA  0ZG E   1      -1.824   7.334  31.137  1.00 14.15     0.198 C 
ENDROOT
BRANCH   1   2
HETATM    2  CB  0ZG E   1      -1.112   7.239  29.776  1.00 12.21     0.061 C 
BRANCH   2   3
HETATM    3  CG  0ZG E   1      -1.300   5.932  28.998  1.00 10.71    -0.020 A 
HETATM    4  CD2 0ZG E   1      -1.809   5.946  27.712  1.00  9.73    -0.004 A 
HETATM    5  CE2 0ZG E   1      -1.929   4.759  27.029  1.00  9.59    -0.000 A 
HETATM    6  CZ  0ZG E   1      -1.553   3.553  27.585  1.00  9.52     0.003 A 
HETATM    7  CE1 0ZG E   1      -1.031   3.505  28.879  1.00  9.60     0.039 A 
HETATM    8  CD1 0ZG E   1      -0.931   4.716  29.538  1.00  9.96    -0.001 A 
BRANCH   7   9
HETATM    9  CF  0ZG E   1      -0.617   2.295  29.461  1.00  9.03     0.205 C 
HETATM   10  NG2 0ZG E   1       0.027   1.373  28.717  1.00  9.25    -0.125 N 
HETATM   11  NG1 0ZG E   1      -0.852   2.081  30.768  1.00  8.04    -0.125 N 
ENDBRANCH   7   9
ENDBRANCH   2   3
ENDBRANCH   1   2
BRANCH   1  12
HETATM   12  C7  0ZG E   1      -1.141   8.378  32.046  1.00 13.65     0.257 C 
HETATM   13  N1  0ZG E   1      -1.050   8.174  33.374  1.00 13.52    -0.319 N 
HETATM   14  C21 0ZG E   1      -1.496   6.951  34.050  1.00 13.23     0.104 C 
HETATM   15  C61 0ZG E   1      -0.273   9.062  34.222  1.00 13.12     0.104 C 
HETATM   16  C31 0ZG E   1      -2.409   7.401  35.169  1.00 12.92     0.024 C 
HETATM   17  C41 0ZG E   1      -1.700   8.424  36.043  1.00 12.86     0.004 C 
HETATM   18  C51 0ZG E   1      -1.238   9.608  35.237  1.00 12.95     0.024 C 
HETATM   19  O   0ZG E   1      -0.634   9.382  31.518  1.00 12.79    -0.270 OA
ENDBRANCH   1  12
BRANCH   1  20
HETATM   20  N   0ZG E   1      -3.241   7.626  30.919  1.00 16.26    -0.177 NA
BRANCH  20  21
HETATM   21  S   0ZG E   1      -4.389   6.406  31.129  1.00 18.07     0.282 S 
HETATM   22  O2S 0ZG E   1      -5.526   6.966  31.974  1.00 18.65    -0.199 OA
HETATM   23  O1S 0ZG E   1      -3.677   5.233  31.786  1.00 18.26    -0.199 OA
BRANCH  21  24
HETATM   24  C1  0ZG E   1      -4.991   5.807  29.539  1.00 19.32     0.105 A 
HETATM   25  C6  0ZG E   1      -5.320   6.672  28.507  1.00 19.98     0.013 A 
HETATM   26  C5  0ZG E   1      -5.613   6.137  27.264  1.00 20.90    -0.004 A 
HETATM   27  C4  0ZG E   1      -5.581   4.753  27.086  1.00 21.71    -0.022 A 
HETATM   28  C   0ZG E   1      -5.859   4.136  25.713  1.00 22.51     0.031 C 
HETATM   29  C3  0ZG E   1      -5.292   3.898  28.132  1.00 21.05    -0.004 A 
HETATM   30  C2  0ZG E   1      -4.999   4.432  29.363  1.00 20.33     0.013 A 
ENDBRANCH  21  24
ENDBRANCH  20  21
ENDBRANCH   1  20
TORSDOF 7
ENDMDL
MODEL 2
REMARK VINA RESULT:      -6.3      6.923     10.142
REMARK  7 active torsions:
REMARK  status: ('A' for Active; 'I' for Inactive)
REMARK    1  A    between atoms: S_1  and  C1_4 
REMARK    2  A    between atoms: S_1  and  N_17 
REMARK       I    between atoms: N1_11  and  C7_19 
REMARK    3  A    between atoms: N_17  and  CA_18 
REMARK    4  A    between atoms: CA_18  and  CB_21 
REMARK    5  A    between atoms: CA_18  and  C7_19 
REMARK    6  A    between atoms: CB_21  and  CG_22 
REMARK    7  A    between atoms: CE1_25  and  CF_28 
ROOT
HETATM    1  CA  0ZG E   1      -2.856   3.274  21.745  1.00 14.15     0.198 C 
ENDROOT
BRANCH   1   2
HETATM    2  CB  0ZG E   1      -3.432   4.060  20.554  1.00 12.21     0.061 C 
BRANCH   2   3
HETATM    3  CG  0ZG E   1      -2.696   5.348  20.166  1.00 10.71    -0.020 A 
HETATM    4  CD2 0ZG E   1      -1.379   5.306  19.748  1.00  9.73    -0.004 A 
HETATM    5  CE2 0ZG E   1      -0.761   6.475  19.371  1.00  9.59    -0.000 A 
HETATM    6  CZ  0ZG E   1      -1.416   7.689  19.393  1.00  9.52     0.003 A 
HETATM    7  CE1 0ZG E   1      -2.748   7.765  19.805  1.00  9.60     0.039 A 
HETATM    8  CD1 0ZG E   1      -3.335   6.572  20.182  1.00  9.96    -0.001 A 
BRANCH   7   9
HETATM    9  CF  0ZG E   1      -3.447   8.984  19.813  1.00  9.03     0.205 C 
HETATM   10  NG2 0ZG E   1      -4.772   9.003  20.062  1.00  9.25    -0.125 N 
HETATM   11  NG1 0ZG E   1      -2.774  10.127  19.591  1.00  8.04    -0.125 N 
ENDBRANCH   7   9
ENDBRANCH   2   3
ENDBRANCH   1   2
BRANCH   1  12
HETATM   12  C7  0ZG E   1      -3.925   3.063  22.837  1.00 13.65     0.257 C 
HETATM   13  N1  0ZG E   1      -3.927   3.822  23.949  1.00 13.52    -0.319 N 
HETATM   14  C21 0ZG E   1      -3.003   4.936  24.185  1.00 13.23     0.104 C 
HETATM   15  C61 0ZG E   1      -5.014   3.749  24.910  1.00 13.12     0.104 C 
HETATM   16  C31 0ZG E   1      -2.377   4.682  25.538  1.00 12.92     0.024 C 
HETATM   17  C41 0ZG E   1      -3.461   4.484  26.586  1.00 12.86     0.004 C 
HETATM   18  C51 0ZG E   1      -4.382   3.352  26.215  1.00 12.95     0.024 C 
HETATM   19  O   0ZG E   1      -4.811   2.213  22.642  1.00 12.79    -0.270 OA
ENDBRANCH   1  12
BRANCH   1  20
HETATM   20  N   0ZG E   1      -2.294   2.013  21.261  1.00 16.26    -0.177 NA
BRANCH  20  21
HETATM   21  S   0ZG E   1      -0.713   1.588  21.671  1.00 18.07     0.282 S 
HETATM   22  O2S 0ZG E   1       0.235   2.557  20.974  1.00 18.65    -0.199 OA
HETATM   23  O1S 0ZG E   1      -0.513   0.143  21.242  1.00 18.26    -0.199 OA
BRANCH  21  24
HETATM   24  C1  0ZG E   1      -0.481   1.622  23.459  1.00 19.32     0.105 A 
HETATM   25  C6  0ZG E   1       0.510   2.387  24.055  1.00 19.98     0.013 A 
HETATM   26  C5  0ZG E   1       0.521   2.494  25.436  1.00 20.90    -0.004 A 
HETATM   27  C4  0ZG E   1      -0.450   1.828  26.185  1.00 21.71    -0.022 A 
HETATM   28  C   0ZG E   1      -0.489   1.964  27.710  1.00 22.51     0.031 C 
HETATM   29  C3  0ZG E   1      -1.408   1.035  25.582  1.00 21.05    -0.004 A 
HETATM   30  C2  0ZG E   1      -1.417   0.933  24.213  1.00 20.33     0.013 A 
ENDBRANCH  21  24
ENDBRANCH  20  21
ENDBRANCH   1  20
TORSDOF 7
ENDMDL
MODEL 3
REMARK VINA RESULT:      -6.3      7.607     11.210
REMARK  7 active torsions:
REMARK  status: ('A' for Active; 'I' for Inactive)
REMARK    1  A    between atoms: S_1  and  C1_4 
REMARK    2  A    between atoms: S_1  and  N_17 
REMARK       I    between atoms: N1_11  and  C7_19 
REMARK    3  A    between atoms: N_17  and  CA_18 
REMARK    4  A    between atoms: CA_18  and  CB_21 
REMARK    5  A    between atoms: CA_18  and  C7_19 
REMARK    6  A    between atoms: CB_21  and  CG_22 
REMARK    7  A    between atoms: CE1_25  and  CF_28 
ROOT
HETATM    1  CA  0ZG E   1      -0.702   2.251  20.967  1.00 14.15     0.198 C 
ENDROOT
BRANCH   1   2
HETATM    2  CB  0ZG E   1      -1.229   3.145  19.830  1.00 12.21     0.061 C 
BRANCH   2   3
HETATM    3  CG  0ZG E   1      -2.272   4.200  20.219  1.00 10.71    -0.020 A 
HETATM    4  CD2 0ZG E   1      -3.395   3.844  20.942  1.00  9.73    -0.004 A 
HETATM    5  CE2 0ZG E   1      -4.291   4.821  21.307  1.00  9.59    -0.000 A 
HETATM    6  CZ  0ZG E   1      -4.101   6.148  20.978  1.00  9.52     0.003 A 
HETATM    7  CE1 0ZG E   1      -2.974   6.541  20.253  1.00  9.60     0.039 A 
HETATM    8  CD1 0ZG E   1      -2.099   5.532  19.898  1.00  9.96    -0.001 A 
BRANCH   7   9
HETATM    9  CF  0ZG E   1      -2.742   7.888  19.927  1.00  9.03     0.205 C 
HETATM   10  NG2 0ZG E   1      -1.502   8.301  19.599  1.00  9.25    -0.125 N 
HETATM   11  NG1 0ZG E   1      -3.776   8.749  19.925  1.00  8.04    -0.125 N 
ENDBRANCH   7   9
ENDBRANCH   2   3
ENDBRANCH   1   2
BRANCH   1  12
HETATM   12  C7  0ZG E   1       0.104   1.061  20.405  1.00 13.65     0.257 C 
HETATM   13  N1  0ZG E   1      -0.382  -0.192  20.482  1.00 13.52    -0.319 N 
HETATM   14  C21 0ZG E   1      -1.709  -0.527  21.009  1.00 13.23     0.104 C 
HETATM   15  C61 0ZG E   1       0.282  -1.301  19.820  1.00 13.12     0.104 C 
HETATM   16  C31 0ZG E   1      -1.486  -1.595  22.056  1.00 12.92     0.024 C 
HETATM   17  C41 0ZG E   1      -0.694  -2.751  21.464  1.00 12.86     0.004 C 
HETATM   18  C51 0ZG E   1       0.623  -2.283  20.906  1.00 12.95     0.024 C 
HETATM   19  O   0ZG E   1       1.184   1.293  19.837  1.00 12.79    -0.270 OA
ENDBRANCH   1  12
BRANCH   1  20
HETATM   20  N   0ZG E   1       0.080   3.067  21.896  1.00 16.26    -0.177 NA
BRANCH  20  21
HETATM   21  S   0ZG E   1      -0.032   2.784  23.556  1.00 18.07     0.282 S 
HETATM   22  O2S 0ZG E   1       1.060   3.590  24.249  1.00 18.65    -0.199 OA
HETATM   23  O1S 0ZG E   1       0.109   1.284  23.764  1.00 18.26    -0.199 OA
BRANCH  21  24
HETATM   24  C1  0ZG E   1      -1.665   3.231  24.177  1.00 19.32     0.105 A 
HETATM   25  C6  0ZG E   1      -1.978   4.529  24.548  1.00 19.98     0.013 A 
HETATM   26  C5  0ZG E   1      -3.295   4.829  24.854  1.00 20.90    -0.004 A 
HETATM   27  C4  0ZG E   1      -4.262   3.825  24.792  1.00 21.71    -0.022 A 
HETATM   28  C   0ZG E   1      -5.732   4.137  25.082  1.00 22.51     0.031 C 
HETATM   29  C3  0ZG E   1      -3.931   2.525  24.460  1.00 21.05    -0.004 A 
HETATM   30  C2  0ZG E   1      -2.625   2.231  24.154  1.00 20.33     0.013 A 
ENDBRANCH  21  24
ENDBRANCH  20  21
ENDBRANCH   1  20
TORSDOF 7
ENDMDL
MODEL 4
REMARK VINA RESULT:      -6.3      8.277     10.700
REMARK  7 active torsions:
REMARK  status: ('A' for Active; 'I' for Inactive)
REMARK    1  A    between atoms: S_1  and  C1_4 
REMARK    2  A    between atoms: S_1  and  N_17 
REMARK       I    between atoms: N1_11  and  C7_19 
REMARK    3  A    between atoms: N_17  and  CA_18 
REMARK    4  A    between atoms: CA_18  and  CB_21 
REMARK    5  A    between atoms: CA_18  and  C7_19 
REMARK    6  A    between atoms: CB_21  and  CG_22 
REMARK    7  A    between atoms: CE1_25  and  CF_28 
ROOT
HETATM    1  CA  0ZG E   1      -2.924   3.873  21.610  1.00 14.15     0.198 C 
ENDROOT
BRANCH   1   2
HETATM    2  CB  0ZG E   1      -3.571   2.620  20.993  1.00 12.21     0.061 C 
BRANCH   2   3
HETATM    3  CG  0ZG E   1      -2.691   1.367  20.912  1.00 10.71    -0.020 A 
HETATM    4  CD2 0ZG E   1      -3.153   0.152  21.381  1.00  9.73    -0.004 A 
HETATM    5  CE2 0ZG E   1      -2.353  -0.960  21.258  1.00  9.59    -0.000 A 
HETATM    6  CZ  0ZG E   1      -1.103  -0.900  20.677  1.00  9.52     0.003 A 
HETATM    7  CE1 0ZG E   1      -0.608   0.312  20.190  1.00  9.60     0.039 A 
HETATM    8  CD1 0ZG E   1      -1.437   1.408  20.336  1.00  9.96    -0.001 A 
BRANCH   7   9
HETATM    9  CF  0ZG E   1       0.651   0.397  19.572  1.00  9.03     0.205 C 
HETATM   10  NG2 0ZG E   1       1.756  -0.010  20.228  1.00  9.25    -0.125 N 
HETATM   11  NG1 0ZG E   1       0.733   0.867  18.314  1.00  8.04    -0.125 N 
ENDBRANCH   7   9
ENDBRANCH   2   3
ENDBRANCH   1   2
BRANCH   1  12
HETATM   12  C7  0ZG E   1      -3.601   5.158  21.088  1.00 13.65     0.257 C 
HETATM   13  N1  0ZG E   1      -2.973   5.949  20.197  1.00 13.52    -0.319 N 
HETATM   14  C21 0ZG E   1      -1.673   5.636  19.594  1.00 13.23     0.104 C 
HETATM   15  C61 0ZG E   1      -3.653   7.071  19.574  1.00 13.12     0.104 C 
HETATM   16  C31 0ZG E   1      -0.805   6.854  19.816  1.00 12.92     0.024 C 
HETATM   17  C41 0ZG E   1      -1.503   8.097  19.285  1.00 12.86     0.004 C 
HETATM   18  C51 0ZG E   1      -2.848   8.289  19.933  1.00 12.95     0.024 C 
HETATM   19  O   0ZG E   1      -4.755   5.417  21.469  1.00 12.79    -0.270 OA
ENDBRANCH   1  12
BRANCH   1  20
HETATM   20  N   0ZG E   1      -2.971   3.769  23.069  1.00 16.26    -0.177 NA
BRANCH  20  21
HETATM   21  S   0ZG E   1      -1.533   3.697  23.950  1.00 18.07     0.282 S 
HETATM   22  O2S 0ZG E   1      -1.757   4.402  25.281  1.00 18.65    -0.199 OA
HETATM   23  O1S 0ZG E   1      -0.456   4.351  23.099  1.00 18.26    -0.199 OA
BRANCH  21  24
HETATM   24  C1  0ZG E   1      -1.015   1.987  24.196  1.00 19.32     0.105 A 
HETATM   25  C6  0ZG E   1      -1.851   1.045  24.775  1.00 19.98     0.013 A 
HETATM   26  C5  0ZG E   1      -1.450  -0.281  24.778  1.00 20.90    -0.004 A 
HETATM   27  C4  0ZG E   1      -0.222  -0.629  24.215  1.00 21.71    -0.022 A 
HETATM   28  C   0ZG E   1       0.229  -2.092  24.166  1.00 22.51     0.031 C 
HETATM   29  C3  0ZG E   1       0.622   0.325  23.678  1.00 21.05    -0.004 A 
HETATM   30  C2  0ZG E   1       0.219   1.638  23.673  1.00 20.33     0.013 A 
ENDBRANCH  21  24
ENDBRANCH  20  21
ENDBRANCH   1  20
TORSDOF 7
ENDMDL
MODEL 5
REMARK VINA RESULT:      -6.3     16.412     19.656
REMARK  7 active torsions:
REMARK  status: ('A' for Active; 'I' for Inactive)
REMARK    1  A    between atoms: S_1  and  C1_4 
REMARK    2  A    between atoms: S_1  and  N_17 
REMARK       I    between atoms: N1_11  and  C7_19 
REMARK    3  A    between atoms: N_17  and  CA_18 
REMARK    4  A    between atoms: CA_18  and  CB_21 
REMARK    5  A    between atoms: CA_18  and  C7_19 
REMARK    6  A    between atoms: CB_21  and  CG_22 
REMARK    7  A    between atoms: CE1_25  and  CF_28 
ROOT
HETATM    1  CA  0ZG E   1      -0.094  -4.437  15.884  1.00 14.15     0.198 C 
ENDROOT
BRANCH   1   2
HETATM    2  CB  0ZG E   1      -0.384  -5.942  15.737  1.00 12.21     0.061 C 
BRANCH   2   3
HETATM    3  CG  0ZG E   1      -1.312  -6.348  14.585  1.00 10.71    -0.020 A 
HETATM    4  CD2 0ZG E   1      -2.657  -6.030  14.621  1.00  9.73    -0.004 A 
HETATM    5  CE2 0ZG E   1      -3.453  -6.376  13.555  1.00  9.59    -0.000 A 
HETATM    6  CZ  0ZG E   1      -2.949  -7.027  12.447  1.00  9.52     0.003 A 
HETATM    7  CE1 0ZG E   1      -1.594  -7.358  12.378  1.00  9.60     0.039 A 
HETATM    8  CD1 0ZG E   1      -0.826  -7.001  13.470  1.00  9.96    -0.001 A 
BRANCH   7   9
HETATM    9  CF  0ZG E   1      -1.051  -7.998  11.251  1.00  9.03     0.205 C 
HETATM   10  NG2 0ZG E   1      -0.211  -9.041  11.405  1.00  9.25    -0.125 N 
HETATM   11  NG1 0ZG E   1      -1.396  -7.570  10.024  1.00  8.04    -0.125 N 
ENDBRANCH   7   9
ENDBRANCH   2   3
ENDBRANCH   1   2
BRANCH   1  12
HETATM   12  C7  0ZG E   1       1.007  -4.187  16.936  1.00 13.65     0.257 C 
HETATM   13  N1  0ZG E   1       0.929  -3.135  17.773  1.00 13.52    -0.319 N 
HETATM   14  C21 0ZG E   1      -0.207  -2.209  17.823  1.00 13.23     0.104 C 
HETATM   15  C61 0ZG E   1       1.866  -2.974  18.870  1.00 13.12     0.104 C 
HETATM   16  C31 0ZG E   1       0.380  -0.820  17.699  1.00 12.92     0.024 C 
HETATM   17  C41 0ZG E   1       1.456  -0.612  18.753  1.00 12.86     0.004 C 
HETATM   18  C51 0ZG E   1       2.541  -1.650  18.642  1.00 12.95     0.024 C 
HETATM   19  O   0ZG E   1       1.938  -5.006  17.025  1.00 12.79    -0.270 OA
ENDBRANCH   1  12
BRANCH   1  20
HETATM   20  N   0ZG E   1       0.249  -3.884  14.573  1.00 16.26    -0.177 NA
BRANCH  20  21
HETATM   21  S   0ZG E   1      -0.503  -2.470  14.039  1.00 18.07     0.282 S 
HETATM   22  O2S 0ZG E   1       0.435  -1.301  14.313  1.00 18.65    -0.199 OA
HETATM   23  O1S 0ZG E   1      -1.827  -2.361  14.781  1.00 18.26    -0.199 OA
BRANCH  21  24
HETATM   24  C1  0ZG E   1      -0.912  -2.581  12.287  1.00 19.32     0.105 A 
HETATM   25  C6  0ZG E   1      -0.353  -1.727  11.348  1.00 19.98     0.013 A 
HETATM   26  C5  0ZG E   1      -0.583  -1.979  10.006  1.00 20.90    -0.004 A 
HETATM   27  C4  0ZG E   1      -1.373  -3.068   9.636  1.00 21.71    -0.022 A 
HETATM   28  C   0ZG E   1      -1.609  -3.397   8.160  1.00 22.51     0.031 C 
HETATM   29  C3  0ZG E   1      -1.959  -3.888  10.582  1.00 21.05    -0.004 A 
HETATM   30  C2  0ZG E   1      -1.726  -3.638  11.912  1.00 20.33     0.013 A 
ENDBRANCH  21  24
ENDBRANCH  20  21
ENDBRANCH   1  20
TORSDOF 7
ENDMDL
MODEL 6
REMARK VINA RESULT:      -6.2     28.220     30.320
REMARK  7 active torsions:
REMARK  status: ('A' for Active; 'I' for Inactive)
REMARK    1  A    between atoms: S_1  and  C1_4 
REMARK    2  A    between atoms: S_1  and  N_17 
REMARK       I    between atoms: N1_11  and  C7_19 
REMARK    3  A    between atoms: N_17  and  CA_18 
REMARK    4  A    between atoms: CA_18  and  CB_21 
REMARK    5  A    between atoms: CA_18  and  C7_19 
REMARK    6  A    between atoms: CB_21  and  CG_22 
REMARK    7  A    between atoms: CE1_25  and  CF_28 
ROOT
HETATM    1  CA  0ZG E   1       7.455  21.021   7.881  1.00 14.15     0.198 C 
ENDROOT
BRANCH   1   2
HETATM    2  CB  0ZG E   1       7.491  19.484   7.967  1.00 12.21     0.061 C 
BRANCH   2   3
HETATM    3  CG  0ZG E   1       7.682  18.732   6.644  1.00 10.71    -0.020 A 
HETATM    4  CD2 0ZG E   1       8.317  17.504   6.619  1.00  9.73    -0.004 A 
HETATM    5  CE2 0ZG E   1       8.438  16.839   5.423  1.00  9.59    -0.000 A 
HETATM    6  CZ  0ZG E   1       7.940  17.358   4.244  1.00  9.52     0.003 A 
HETATM    7  CE1 0ZG E   1       7.289  18.593   4.236  1.00  9.60     0.039 A 
HETATM    8  CD1 0ZG E   1       7.192  19.236   5.455  1.00  9.96    -0.001 A 
BRANCH   7   9
HETATM    9  CF  0ZG E   1       6.751  19.133   3.055  1.00  9.03     0.205 C 
HETATM   10  NG2 0ZG E   1       6.460  18.327   2.015  1.00  9.25    -0.125 N 
HETATM   11  NG1 0ZG E   1       6.512  20.455   2.988  1.00  8.04    -0.125 N 
ENDBRANCH   7   9
ENDBRANCH   2   3
ENDBRANCH   1   2
BRANCH   1  12
HETATM   12  C7  0ZG E   1       6.365  21.600   8.807  1.00 13.65     0.257 C 
HETATM   13  N1  0ZG E   1       5.105  21.768   8.361  1.00 13.52    -0.319 N 
HETATM   14  C21 0ZG E   1       4.644  21.353   7.032  1.00 13.23     0.104 C 
HETATM   15  C61 0ZG E   1       4.033  22.158   9.258  1.00 13.12     0.104 C 
HETATM   16  C31 0ZG E   1       3.980  22.568   6.421  1.00 12.92     0.024 C 
HETATM   17  C41 0ZG E   1       2.911  23.106   7.360  1.00 12.86     0.004 C 
HETATM   18  C51 0ZG E   1       3.487  23.447   8.709  1.00 12.95     0.024 C 
HETATM   19  O   0ZG E   1       6.665  21.860   9.985  1.00 12.79    -0.270 OA
ENDBRANCH   1  12
BRANCH   1  20
HETATM   20  N   0ZG E   1       8.785  21.549   8.185  1.00 16.26    -0.177 NA
BRANCH  20  21
HETATM   21  S   0ZG E   1       9.843  21.928   6.925  1.00 18.07     0.282 S 
HETATM   22  O2S 0ZG E   1      10.795  23.012   7.414  1.00 18.65    -0.199 OA
HETATM   23  O1S 0ZG E   1       8.991  22.368   5.744  1.00 18.26    -0.199 OA
BRANCH  21  24
HETATM   24  C1  0ZG E   1      10.745  20.465   6.380  1.00 19.32     0.105 A 
HETATM   25  C6  0ZG E   1      11.302  19.570   7.280  1.00 19.98     0.013 A 
HETATM   26  C5  0ZG E   1      11.832  18.387   6.794  1.00 20.90    -0.004 A 
HETATM   27  C4  0ZG E   1      11.802  18.132   5.422  1.00 21.71    -0.022 A 
HETATM   28  C   0ZG E   1      12.341  16.814   4.860  1.00 22.51     0.031 C 
HETATM   29  C3  0ZG E   1      11.281  19.050   4.530  1.00 21.05    -0.004 A 
HETATM   30  C2  0ZG E   1      10.754  20.221   5.016  1.00 20.33     0.013 A 
ENDBRANCH  21  24
ENDBRANCH  20  21
ENDBRANCH   1  20
TORSDOF 7
ENDMDL
MODEL 7
REMARK VINA RESULT:      -6.2      7.284     10.813
REMARK  7 active torsions:
REMARK  status: ('A' for Active; 'I' for Inactive)
REMARK    1  A    between atoms: S_1  and  C1_4 
REMARK    2  A    between atoms: S_1  and  N_17 
REMARK       I    between atoms: N1_11  and  C7_19 
REMARK    3  A    between atoms: N_17  and  CA_18 
REMARK    4  A    between atoms: CA_18  and  CB_21 
REMARK    5  A    between atoms: CA_18  and  C7_19 
REMARK    6  A    between atoms: CB_21  and  CG_22 
REMARK    7  A    between atoms: CE1_25  and  CF_28 
ROOT
HETATM    1  CA  0ZG E   1      -1.283   2.300  21.562  1.00 14.15     0.198 C 
ENDROOT
BRANCH   1   2
HETATM    2  CB  0ZG E   1      -1.713   2.970  20.244  1.00 12.21     0.061 C 
BRANCH   2   3
HETATM    3  CG  0ZG E   1      -2.651   4.177  20.368  1.00 10.71    -0.020 A 
HETATM    4  CD2 0ZG E   1      -3.935   4.022  20.857  1.00  9.73    -0.004 A 
HETATM    5  CE2 0ZG E   1      -4.736   5.131  20.990  1.00  9.59    -0.000 A 
HETATM    6  CZ  0ZG E   1      -4.297   6.395  20.655  1.00  9.52     0.003 A 
HETATM    7  CE1 0ZG E   1      -3.004   6.586  20.162  1.00  9.60     0.039 A 
HETATM    8  CD1 0ZG E   1      -2.230   5.449  20.036  1.00  9.96    -0.001 A 
BRANCH   7   9
HETATM    9  CF  0ZG E   1      -2.523   7.865  19.837  1.00  9.03     0.205 C 
HETATM   10  NG2 0ZG E   1      -3.360   8.922  19.832  1.00  9.25    -0.125 N 
HETATM   11  NG1 0ZG E   1      -1.218   8.022  19.553  1.00  8.04    -0.125 N 
ENDBRANCH   7   9
ENDBRANCH   2   3
ENDBRANCH   1   2
BRANCH   1  12
HETATM   12  C7  0ZG E   1      -0.088   1.350  21.333  1.00 13.65     0.257 C 
HETATM   13  N1  0ZG E   1      -0.047   0.144  21.930  1.00 13.52    -0.319 N 
HETATM   14  C21 0ZG E   1      -1.131  -0.400  22.755  1.00 13.23     0.104 C 
HETATM   15  C61 0ZG E   1       0.984  -0.825  21.604  1.00 13.12     0.104 C 
HETATM   16  C31 0ZG E   1      -0.493  -0.820  24.061  1.00 12.92     0.024 C 
HETATM   17  C41 0ZG E   1       0.676  -1.756  23.795  1.00 12.86     0.004 C 
HETATM   18  C51 0ZG E   1       1.698  -1.115  22.895  1.00 12.95     0.024 C 
HETATM   19  O   0ZG E   1       0.808   1.704  20.548  1.00 12.79    -0.270 OA
ENDBRANCH   1  12
BRANCH   1  20
HETATM   20  N   0ZG E   1      -0.993   3.334  22.554  1.00 16.26    -0.177 NA
BRANCH  20  21
HETATM   21  S   0ZG E   1      -1.709   3.253  24.081  1.00 18.07     0.282 S 
HETATM   22  O2S 0ZG E   1      -2.947   2.371  23.978  1.00 18.65    -0.199 OA
HETATM   23  O1S 0ZG E   1      -2.024   4.681  24.502  1.00 18.26    -0.199 OA
BRANCH  21  24
HETATM   24  C1  0ZG E   1      -0.550   2.609  25.302  1.00 19.32     0.105 A 
HETATM   25  C6  0ZG E   1      -0.958   2.228  26.571  1.00 19.98     0.013 A 
HETATM   26  C5  0ZG E   1      -0.047   1.588  27.394  1.00 20.90    -0.004 A 
HETATM   27  C4  0ZG E   1       1.250   1.355  26.934  1.00 21.71    -0.022 A 
HETATM   28  C   0ZG E   1       2.267   0.612  27.806  1.00 22.51     0.031 C 
HETATM   29  C3  0ZG E   1       1.658   1.777  25.683  1.00 21.05    -0.004 A 
HETATM   30  C2  0ZG E   1       0.751   2.408  24.868  1.00 20.33     0.013 A 
ENDBRANCH  21  24
ENDBRANCH  20  21
ENDBRANCH   1  20
TORSDOF 7
ENDMDL
MODEL 8
REMARK VINA RESULT:      -6.2      1.464      2.154
REMARK  7 active torsions:
REMARK  status: ('A' for Active; 'I' for Inactive)
REMARK    1  A    between atoms: S_1  and  C1_4 
REMARK    2  A    between atoms: S_1  and  N_17 
REMARK       I    between atoms: N1_11  and  C7_19 
REMARK    3  A    between atoms: N_17  and  CA_18 
REMARK    4  A    between atoms: CA_18  and  CB_21 
REMARK    5  A    between atoms: CA_18  and  C7_19 
REMARK    6  A    between atoms: CB_21  and  CG_22 
REMARK    7  A    between atoms: CE1_25  and  CF_28 
ROOT
HETATM    1  CA  0ZG E   1      -1.978   7.262  31.023  1.00 14.15     0.198 C 
ENDROOT
BRANCH   1   2
HETATM    2  CB  0ZG E   1      -1.359   7.208  29.614  1.00 12.21     0.061 C 
BRANCH   2   3
HETATM    3  CG  0ZG E   1      -1.339   5.836  28.930  1.00 10.71    -0.020 A 
HETATM    4  CD2 0ZG E   1      -0.857   4.725  29.596  1.00  9.73    -0.004 A 
HETATM    5  CE2 0ZG E   1      -0.889   3.503  28.967  1.00  9.59    -0.000 A 
HETATM    6  CZ  0ZG E   1      -1.392   3.351  27.691  1.00  9.52     0.003 A 
HETATM    7  CE1 0ZG E   1      -1.891   4.452  26.992  1.00  9.60     0.039 A 
HETATM    8  CD1 0ZG E   1      -1.837   5.664  27.653  1.00  9.96    -0.001 A 
BRANCH   7   9
HETATM    9  CF  0ZG E   1      -2.432   4.321  25.702  1.00  9.03     0.205 C 
HETATM   10  NG2 0ZG E   1      -2.503   3.108  25.119  1.00  9.25    -0.125 N 
HETATM   11  NG1 0ZG E   1      -2.895   5.415  25.071  1.00  8.04    -0.125 N 
ENDBRANCH   7   9
ENDBRANCH   2   3
ENDBRANCH   1   2
BRANCH   1  12
HETATM   12  C7  0ZG E   1      -1.247   8.293  31.908  1.00 13.65     0.257 C 
HETATM   13  N1  0ZG E   1      -1.129   8.096  33.235  1.00 13.52    -0.319 N 
HETATM   14  C21 0ZG E   1      -1.590   6.889  33.929  1.00 13.23     0.104 C 
HETATM   15  C61 0ZG E   1      -0.310   8.969  34.057  1.00 13.12     0.104 C 
HETATM   16  C31 0ZG E   1      -2.464   7.369  35.066  1.00 12.92     0.024 C 
HETATM   17  C41 0ZG E   1      -1.708   8.379  35.917  1.00 12.86     0.004 C 
HETATM   18  C51 0ZG E   1      -1.237   9.546  35.091  1.00 12.95     0.024 C 
HETATM   19  O   0ZG E   1      -0.728   9.281  31.361  1.00 12.79    -0.270 OA
ENDBRANCH   1  12
BRANCH   1  20
HETATM   20  N   0ZG E   1      -3.410   7.538  30.908  1.00 16.26    -0.177 NA
BRANCH  20  21
HETATM   21  S   0ZG E   1      -4.520   6.274  31.049  1.00 18.07     0.282 S 
HETATM   22  O2S 0ZG E   1      -5.770   6.816  31.732  1.00 18.65    -0.199 OA
HETATM   23  O1S 0ZG E   1      -3.838   5.168  31.839  1.00 18.26    -0.199 OA
BRANCH  21  24
HETATM   24  C1  0ZG E   1      -4.910   5.577  29.433  1.00 19.32     0.105 A 
HETATM   25  C6  0ZG E   1      -4.941   4.209  29.213  1.00 19.98     0.013 A 
HETATM   26  C5  0ZG E   1      -5.410   3.745  27.996  1.00 20.90    -0.004 A 
HETATM   27  C4  0ZG E   1      -5.828   4.658  27.026  1.00 21.71    -0.022 A 
HETATM   28  C   0ZG E   1      -6.392   4.174  25.688  1.00 22.51     0.031 C 
HETATM   29  C3  0ZG E   1      -5.754   6.022  27.242  1.00 21.05    -0.004 A 
HETATM   30  C2  0ZG E   1      -5.291   6.478  28.451  1.00 20.33     0.013 A 
ENDBRANCH  21  24
ENDBRANCH  20  21
ENDBRANCH   1  20
TORSDOF 7
ENDMDL
MODEL 9
REMARK VINA RESULT:      -6.2      9.211     12.324
REMARK  7 active torsions:
REMARK  status: ('A' for Active; 'I' for Inactive)
REMARK    1  A    between atoms: S_1  and  C1_4 
REMARK    2  A    between atoms: S_1  and  N_17 
REMARK       I    between atoms: N1_11  and  C7_19 
REMARK    3  A    between atoms: N_17  and  CA_18 
REMARK    4  A    between atoms: CA_18  and  CB_21 
REMARK    5  A    between atoms: CA_18  and  C7_19 
REMARK    6  A    between atoms: CB_21  and  CG_22 
REMARK    7  A    between atoms: CE1_25  and  CF_28 
ROOT
HETATM    1  CA  0ZG E   1      -0.118   1.394  22.037  1.00 14.15     0.198 C 
ENDROOT
BRANCH   1   2
HETATM    2  CB  0ZG E   1       0.626   0.592  23.120  1.00 12.21     0.061 C 
BRANCH   2   3
HETATM    3  CG  0ZG E   1       0.885  -0.888  22.815  1.00 10.71    -0.020 A 
HETATM    4  CD2 0ZG E   1      -0.106  -1.675  22.259  1.00  9.73    -0.004 A 
HETATM    5  CE2 0ZG E   1       0.172  -2.989  21.963  1.00  9.59    -0.000 A 
HETATM    6  CZ  0ZG E   1       1.413  -3.545  22.200  1.00  9.52     0.003 A 
HETATM    7  CE1 0ZG E   1       2.437  -2.776  22.757  1.00  9.60     0.039 A 
HETATM    8  CD1 0ZG E   1       2.120  -1.463  23.047  1.00  9.96    -0.001 A 
BRANCH   7   9
HETATM    9  CF  0ZG E   1       3.716  -3.310  22.985  1.00  9.03     0.205 C 
HETATM   10  NG2 0ZG E   1       4.288  -3.199  24.200  1.00  9.25    -0.125 N 
HETATM   11  NG1 0ZG E   1       4.349  -3.949  21.984  1.00  8.04    -0.125 N 
ENDBRANCH   7   9
ENDBRANCH   2   3
ENDBRANCH   1   2
BRANCH   1  12
HETATM   12  C7  0ZG E   1      -0.527   2.786  22.564  1.00 13.65     0.257 C 
HETATM   13  N1  0ZG E   1      -1.788   3.232  22.413  1.00 13.52    -0.319 N 
HETATM   14  C21 0ZG E   1      -2.876   2.437  21.833  1.00 13.23     0.104 C 
HETATM   15  C61 0ZG E   1      -2.233   4.464  23.040  1.00 13.12     0.104 C 
HETATM   16  C31 0ZG E   1      -3.483   3.291  20.742  1.00 12.92     0.024 C 
HETATM   17  C41 0ZG E   1      -3.876   4.651  21.301  1.00 12.86     0.004 C 
HETATM   18  C51 0ZG E   1      -2.695   5.351  21.918  1.00 12.95     0.024 C 
HETATM   19  O   0ZG E   1       0.320   3.461  23.173  1.00 12.79    -0.270 OA
ENDBRANCH   1  12
BRANCH   1  20
HETATM   20  N   0ZG E   1       0.718   1.473  20.839  1.00 16.26    -0.177 NA
BRANCH  20  21
HETATM   21  S   0ZG E   1       0.216   0.714  19.417  1.00 18.07     0.282 S 
HETATM   22  O2S 0ZG E   1       0.248   1.743  18.294  1.00 18.65    -0.199 OA
HETATM   23  O1S 0ZG E   1      -1.174   0.154  19.677  1.00 18.26    -0.199 OA
BRANCH  21  24
HETATM   24  C1  0ZG E   1       1.269  -0.699  19.036  1.00 19.32     0.105 A 
HETATM   25  C6  0ZG E   1       2.597  -0.752  19.431  1.00 19.98     0.013 A 
HETATM   26  C5  0ZG E   1       3.294  -1.935  19.251  1.00 20.90    -0.004 A 
HETATM   27  C4  0ZG E   1       2.651  -3.031  18.674  1.00 21.71    -0.022 A 
HETATM   28  C   0ZG E   1       3.383  -4.364  18.502  1.00 22.51     0.031 C 
HETATM   29  C3  0ZG E   1       1.339  -2.954  18.247  1.00 21.05    -0.004 A 
HETATM   30  C2  0ZG E   1       0.650  -1.781  18.429  1.00 20.33     0.013 A 
ENDBRANCH  21  24
ENDBRANCH  20  21
ENDBRANCH   1  20
TORSDOF 7
ENDMDL
