REMARK VINA RESULT:      -6.3     16.412     19.656
REMARK  7 active torsions:
REMARK  status: ('A' for Active; 'I' for Inactive)
REMARK    1  A    between atoms: S_1  and  C1_4 
REMARK    2  A    between atoms: S_1  and  N_17 
REMARK       I    between atoms: N1_11  and  C7_19 
REMARK    3  A    between atoms: N_17  and  CA_18 
REMARK    4  A    between atoms: CA_18  and  CB_21 
REMARK    5  A    between atoms: CA_18  and  C7_19 
REMARK    6  A    between atoms: CB_21  and  CG_22 
REMARK    7  A    between atoms: CE1_25  and  CF_28 
ROOT
HETATM    1  CA  0ZG E   1      -0.094  -4.437  15.884  1.00 14.15     0.198 C 
ENDROOT
BRANCH   1   2
HETATM    2  CB  0ZG E   1      -0.384  -5.942  15.737  1.00 12.21     0.061 C 
BRANCH   2   3
HETATM    3  CG  0ZG E   1      -1.312  -6.348  14.585  1.00 10.71    -0.020 A 
HETATM    4  CD2 0ZG E   1      -2.657  -6.030  14.621  1.00  9.73    -0.004 A 
HETATM    5  CE2 0ZG E   1      -3.453  -6.376  13.555  1.00  9.59    -0.000 A 
HETATM    6  CZ  0ZG E   1      -2.949  -7.027  12.447  1.00  9.52     0.003 A 
HETATM    7  CE1 0ZG E   1      -1.594  -7.358  12.378  1.00  9.60     0.039 A 
HETATM    8  CD1 0ZG E   1      -0.826  -7.001  13.470  1.00  9.96    -0.001 A 
BRANCH   7   9
HETATM    9  CF  0ZG E   1      -1.051  -7.998  11.251  1.00  9.03     0.205 C 
HETATM   10  NG2 0ZG E   1      -0.211  -9.041  11.405  1.00  9.25    -0.125 N 
HETATM   11  NG1 0ZG E   1      -1.396  -7.570  10.024  1.00  8.04    -0.125 N 
ENDBRANCH   7   9
ENDBRANCH   2   3
ENDBRANCH   1   2
BRANCH   1  12
HETATM   12  C7  0ZG E   1       1.007  -4.187  16.936  1.00 13.65     0.257 C 
HETATM   13  N1  0ZG E   1       0.929  -3.135  17.773  1.00 13.52    -0.319 N 
HETATM   14  C21 0ZG E   1      -0.207  -2.209  17.823  1.00 13.23     0.104 C 
HETATM   15  C61 0ZG E   1       1.866  -2.974  18.870  1.00 13.12     0.104 C 
HETATM   16  C31 0ZG E   1       0.380  -0.820  17.699  1.00 12.92     0.024 C 
HETATM   17  C41 0ZG E   1       1.456  -0.612  18.753  1.00 12.86     0.004 C 
HETATM   18  C51 0ZG E   1       2.541  -1.650  18.642  1.00 12.95     0.024 C 
HETATM   19  O   0ZG E   1       1.938  -5.006  17.025  1.00 12.79    -0.270 OA
ENDBRANCH   1  12
BRANCH   1  20
HETATM   20  N   0ZG E   1       0.249  -3.884  14.573  1.00 16.26    -0.177 NA
BRANCH  20  21
HETATM   21  S   0ZG E   1      -0.503  -2.470  14.039  1.00 18.07     0.282 S 
HETATM   22  O2S 0ZG E   1       0.435  -1.301  14.313  1.00 18.65    -0.199 OA
HETATM   23  O1S 0ZG E   1      -1.827  -2.361  14.781  1.00 18.26    -0.199 OA
BRANCH  21  24
HETATM   24  C1  0ZG E   1      -0.912  -2.581  12.287  1.00 19.32     0.105 A 
HETATM   25  C6  0ZG E   1      -0.353  -1.727  11.348  1.00 19.98     0.013 A 
HETATM   26  C5  0ZG E   1      -0.583  -1.979  10.006  1.00 20.90    -0.004 A 
HETATM   27  C4  0ZG E   1      -1.373  -3.068   9.636  1.00 21.71    -0.022 A 
HETATM   28  C   0ZG E   1      -1.609  -3.397   8.160  1.00 22.51     0.031 C 
HETATM   29  C3  0ZG E   1      -1.959  -3.888  10.582  1.00 21.05    -0.004 A 
HETATM   30  C2  0ZG E   1      -1.726  -3.638  11.912  1.00 20.33     0.013 A 
ENDBRANCH  21  24
ENDBRANCH  20  21
ENDBRANCH   1  20
TORSDOF 7
