REMARK VINA RESULT:      -6.3      6.923     10.142
REMARK  7 active torsions:
REMARK  status: ('A' for Active; 'I' for Inactive)
REMARK    1  A    between atoms: S_1  and  C1_4 
REMARK    2  A    between atoms: S_1  and  N_17 
REMARK       I    between atoms: N1_11  and  C7_19 
REMARK    3  A    between atoms: N_17  and  CA_18 
REMARK    4  A    between atoms: CA_18  and  CB_21 
REMARK    5  A    between atoms: CA_18  and  C7_19 
REMARK    6  A    between atoms: CB_21  and  CG_22 
REMARK    7  A    between atoms: CE1_25  and  CF_28 
ROOT
HETATM    1  CA  0ZG E   1      -2.856   3.274  21.745  1.00 14.15     0.198 C 
ENDROOT
BRANCH   1   2
HETATM    2  CB  0ZG E   1      -3.432   4.060  20.554  1.00 12.21     0.061 C 
BRANCH   2   3
HETATM    3  CG  0ZG E   1      -2.696   5.348  20.166  1.00 10.71    -0.020 A 
HETATM    4  CD2 0ZG E   1      -1.379   5.306  19.748  1.00  9.73    -0.004 A 
HETATM    5  CE2 0ZG E   1      -0.761   6.475  19.371  1.00  9.59    -0.000 A 
HETATM    6  CZ  0ZG E   1      -1.416   7.689  19.393  1.00  9.52     0.003 A 
HETATM    7  CE1 0ZG E   1      -2.748   7.765  19.805  1.00  9.60     0.039 A 
HETATM    8  CD1 0ZG E   1      -3.335   6.572  20.182  1.00  9.96    -0.001 A 
BRANCH   7   9
HETATM    9  CF  0ZG E   1      -3.447   8.984  19.813  1.00  9.03     0.205 C 
HETATM   10  NG2 0ZG E   1      -4.772   9.003  20.062  1.00  9.25    -0.125 N 
HETATM   11  NG1 0ZG E   1      -2.774  10.127  19.591  1.00  8.04    -0.125 N 
ENDBRANCH   7   9
ENDBRANCH   2   3
ENDBRANCH   1   2
BRANCH   1  12
HETATM   12  C7  0ZG E   1      -3.925   3.063  22.837  1.00 13.65     0.257 C 
HETATM   13  N1  0ZG E   1      -3.927   3.822  23.949  1.00 13.52    -0.319 N 
HETATM   14  C21 0ZG E   1      -3.003   4.936  24.185  1.00 13.23     0.104 C 
HETATM   15  C61 0ZG E   1      -5.014   3.749  24.910  1.00 13.12     0.104 C 
HETATM   16  C31 0ZG E   1      -2.377   4.682  25.538  1.00 12.92     0.024 C 
HETATM   17  C41 0ZG E   1      -3.461   4.484  26.586  1.00 12.86     0.004 C 
HETATM   18  C51 0ZG E   1      -4.382   3.352  26.215  1.00 12.95     0.024 C 
HETATM   19  O   0ZG E   1      -4.811   2.213  22.642  1.00 12.79    -0.270 OA
ENDBRANCH   1  12
BRANCH   1  20
HETATM   20  N   0ZG E   1      -2.294   2.013  21.261  1.00 16.26    -0.177 NA
BRANCH  20  21
HETATM   21  S   0ZG E   1      -0.713   1.588  21.671  1.00 18.07     0.282 S 
HETATM   22  O2S 0ZG E   1       0.235   2.557  20.974  1.00 18.65    -0.199 OA
HETATM   23  O1S 0ZG E   1      -0.513   0.143  21.242  1.00 18.26    -0.199 OA
BRANCH  21  24
HETATM   24  C1  0ZG E   1      -0.481   1.622  23.459  1.00 19.32     0.105 A 
HETATM   25  C6  0ZG E   1       0.510   2.387  24.055  1.00 19.98     0.013 A 
HETATM   26  C5  0ZG E   1       0.521   2.494  25.436  1.00 20.90    -0.004 A 
HETATM   27  C4  0ZG E   1      -0.450   1.828  26.185  1.00 21.71    -0.022 A 
HETATM   28  C   0ZG E   1      -0.489   1.964  27.710  1.00 22.51     0.031 C 
HETATM   29  C3  0ZG E   1      -1.408   1.035  25.582  1.00 21.05    -0.004 A 
HETATM   30  C2  0ZG E   1      -1.417   0.933  24.213  1.00 20.33     0.013 A 
ENDBRANCH  21  24
ENDBRANCH  20  21
ENDBRANCH   1  20
TORSDOF 7
