REMARK VINA RESULT:      -6.2      9.211     12.324
REMARK  7 active torsions:
REMARK  status: ('A' for Active; 'I' for Inactive)
REMARK    1  A    between atoms: S_1  and  C1_4 
REMARK    2  A    between atoms: S_1  and  N_17 
REMARK       I    between atoms: N1_11  and  C7_19 
REMARK    3  A    between atoms: N_17  and  CA_18 
REMARK    4  A    between atoms: CA_18  and  CB_21 
REMARK    5  A    between atoms: CA_18  and  C7_19 
REMARK    6  A    between atoms: CB_21  and  CG_22 
REMARK    7  A    between atoms: CE1_25  and  CF_28 
ROOT
HETATM    1  CA  0ZG E   1      -0.118   1.394  22.037  1.00 14.15     0.198 C 
ENDROOT
BRANCH   1   2
HETATM    2  CB  0ZG E   1       0.626   0.592  23.120  1.00 12.21     0.061 C 
BRANCH   2   3
HETATM    3  CG  0ZG E   1       0.885  -0.888  22.815  1.00 10.71    -0.020 A 
HETATM    4  CD2 0ZG E   1      -0.106  -1.675  22.259  1.00  9.73    -0.004 A 
HETATM    5  CE2 0ZG E   1       0.172  -2.989  21.963  1.00  9.59    -0.000 A 
HETATM    6  CZ  0ZG E   1       1.413  -3.545  22.200  1.00  9.52     0.003 A 
HETATM    7  CE1 0ZG E   1       2.437  -2.776  22.757  1.00  9.60     0.039 A 
HETATM    8  CD1 0ZG E   1       2.120  -1.463  23.047  1.00  9.96    -0.001 A 
BRANCH   7   9
HETATM    9  CF  0ZG E   1       3.716  -3.310  22.985  1.00  9.03     0.205 C 
HETATM   10  NG2 0ZG E   1       4.288  -3.199  24.200  1.00  9.25    -0.125 N 
HETATM   11  NG1 0ZG E   1       4.349  -3.949  21.984  1.00  8.04    -0.125 N 
ENDBRANCH   7   9
ENDBRANCH   2   3
ENDBRANCH   1   2
BRANCH   1  12
HETATM   12  C7  0ZG E   1      -0.527   2.786  22.564  1.00 13.65     0.257 C 
HETATM   13  N1  0ZG E   1      -1.788   3.232  22.413  1.00 13.52    -0.319 N 
HETATM   14  C21 0ZG E   1      -2.876   2.437  21.833  1.00 13.23     0.104 C 
HETATM   15  C61 0ZG E   1      -2.233   4.464  23.040  1.00 13.12     0.104 C 
HETATM   16  C31 0ZG E   1      -3.483   3.291  20.742  1.00 12.92     0.024 C 
HETATM   17  C41 0ZG E   1      -3.876   4.651  21.301  1.00 12.86     0.004 C 
HETATM   18  C51 0ZG E   1      -2.695   5.351  21.918  1.00 12.95     0.024 C 
HETATM   19  O   0ZG E   1       0.320   3.461  23.173  1.00 12.79    -0.270 OA
ENDBRANCH   1  12
BRANCH   1  20
HETATM   20  N   0ZG E   1       0.718   1.473  20.839  1.00 16.26    -0.177 NA
BRANCH  20  21
HETATM   21  S   0ZG E   1       0.216   0.714  19.417  1.00 18.07     0.282 S 
HETATM   22  O2S 0ZG E   1       0.248   1.743  18.294  1.00 18.65    -0.199 OA
HETATM   23  O1S 0ZG E   1      -1.174   0.154  19.677  1.00 18.26    -0.199 OA
BRANCH  21  24
HETATM   24  C1  0ZG E   1       1.269  -0.699  19.036  1.00 19.32     0.105 A 
HETATM   25  C6  0ZG E   1       2.597  -0.752  19.431  1.00 19.98     0.013 A 
HETATM   26  C5  0ZG E   1       3.294  -1.935  19.251  1.00 20.90    -0.004 A 
HETATM   27  C4  0ZG E   1       2.651  -3.031  18.674  1.00 21.71    -0.022 A 
HETATM   28  C   0ZG E   1       3.383  -4.364  18.502  1.00 22.51     0.031 C 
HETATM   29  C3  0ZG E   1       1.339  -2.954  18.247  1.00 21.05    -0.004 A 
HETATM   30  C2  0ZG E   1       0.650  -1.781  18.429  1.00 20.33     0.013 A 
ENDBRANCH  21  24
ENDBRANCH  20  21
ENDBRANCH   1  20
TORSDOF 7
