REMARK VINA RESULT:      -6.2      1.464      2.154
REMARK  7 active torsions:
REMARK  status: ('A' for Active; 'I' for Inactive)
REMARK    1  A    between atoms: S_1  and  C1_4 
REMARK    2  A    between atoms: S_1  and  N_17 
REMARK       I    between atoms: N1_11  and  C7_19 
REMARK    3  A    between atoms: N_17  and  CA_18 
REMARK    4  A    between atoms: CA_18  and  CB_21 
REMARK    5  A    between atoms: CA_18  and  C7_19 
REMARK    6  A    between atoms: CB_21  and  CG_22 
REMARK    7  A    between atoms: CE1_25  and  CF_28 
ROOT
HETATM    1  CA  0ZG E   1      -1.978   7.262  31.023  1.00 14.15     0.198 C 
ENDROOT
BRANCH   1   2
HETATM    2  CB  0ZG E   1      -1.359   7.208  29.614  1.00 12.21     0.061 C 
BRANCH   2   3
HETATM    3  CG  0ZG E   1      -1.339   5.836  28.930  1.00 10.71    -0.020 A 
HETATM    4  CD2 0ZG E   1      -0.857   4.725  29.596  1.00  9.73    -0.004 A 
HETATM    5  CE2 0ZG E   1      -0.889   3.503  28.967  1.00  9.59    -0.000 A 
HETATM    6  CZ  0ZG E   1      -1.392   3.351  27.691  1.00  9.52     0.003 A 
HETATM    7  CE1 0ZG E   1      -1.891   4.452  26.992  1.00  9.60     0.039 A 
HETATM    8  CD1 0ZG E   1      -1.837   5.664  27.653  1.00  9.96    -0.001 A 
BRANCH   7   9
HETATM    9  CF  0ZG E   1      -2.432   4.321  25.702  1.00  9.03     0.205 C 
HETATM   10  NG2 0ZG E   1      -2.503   3.108  25.119  1.00  9.25    -0.125 N 
HETATM   11  NG1 0ZG E   1      -2.895   5.415  25.071  1.00  8.04    -0.125 N 
ENDBRANCH   7   9
ENDBRANCH   2   3
ENDBRANCH   1   2
BRANCH   1  12
HETATM   12  C7  0ZG E   1      -1.247   8.293  31.908  1.00 13.65     0.257 C 
HETATM   13  N1  0ZG E   1      -1.129   8.096  33.235  1.00 13.52    -0.319 N 
HETATM   14  C21 0ZG E   1      -1.590   6.889  33.929  1.00 13.23     0.104 C 
HETATM   15  C61 0ZG E   1      -0.310   8.969  34.057  1.00 13.12     0.104 C 
HETATM   16  C31 0ZG E   1      -2.464   7.369  35.066  1.00 12.92     0.024 C 
HETATM   17  C41 0ZG E   1      -1.708   8.379  35.917  1.00 12.86     0.004 C 
HETATM   18  C51 0ZG E   1      -1.237   9.546  35.091  1.00 12.95     0.024 C 
HETATM   19  O   0ZG E   1      -0.728   9.281  31.361  1.00 12.79    -0.270 OA
ENDBRANCH   1  12
BRANCH   1  20
HETATM   20  N   0ZG E   1      -3.410   7.538  30.908  1.00 16.26    -0.177 NA
BRANCH  20  21
HETATM   21  S   0ZG E   1      -4.520   6.274  31.049  1.00 18.07     0.282 S 
HETATM   22  O2S 0ZG E   1      -5.770   6.816  31.732  1.00 18.65    -0.199 OA
HETATM   23  O1S 0ZG E   1      -3.838   5.168  31.839  1.00 18.26    -0.199 OA
BRANCH  21  24
HETATM   24  C1  0ZG E   1      -4.910   5.577  29.433  1.00 19.32     0.105 A 
HETATM   25  C6  0ZG E   1      -4.941   4.209  29.213  1.00 19.98     0.013 A 
HETATM   26  C5  0ZG E   1      -5.410   3.745  27.996  1.00 20.90    -0.004 A 
HETATM   27  C4  0ZG E   1      -5.828   4.658  27.026  1.00 21.71    -0.022 A 
HETATM   28  C   0ZG E   1      -6.392   4.174  25.688  1.00 22.51     0.031 C 
HETATM   29  C3  0ZG E   1      -5.754   6.022  27.242  1.00 21.05    -0.004 A 
HETATM   30  C2  0ZG E   1      -5.291   6.478  28.451  1.00 20.33     0.013 A 
ENDBRANCH  21  24
ENDBRANCH  20  21
ENDBRANCH   1  20
TORSDOF 7
